download/pglib-opf-master/api/pglib_opf_case2000_tamu__api.m
%%%%%%%%%%%%%%%%%%%%%%%%%%%%%%%%%%%%%%%%%%%%%%%%%%%%%%%%%%%%%%%%%%%%%%%%%%%
%%%%                                                                  %%%%%
%%%%    IEEE PES Power Grid Library - Optimal Power Flow - v19.05     %%%%%
%%%%          (https://github.com/power-grid-lib/pglib-opf)           %%%%%
%%%%             Benchmark Group - Active Power Increase              %%%%%
%%%%                         08 - May - 2019                          %%%%%
%%%%                                                                  %%%%%
%%%%%%%%%%%%%%%%%%%%%%%%%%%%%%%%%%%%%%%%%%%%%%%%%%%%%%%%%%%%%%%%%%%%%%%%%%%
function mpc = pglib_opf_case2000_tamu__api
mpc.version = '2';
mpc.baseMVA = 100.0;

%% bus data
%	bus_i	type	Pd	Qd	Gs	Bs	area	Vm	Va	baseKV	zone	Vmax	Vmin
mpc.bus = [
	1001	 1	 24.38	 5.89	 0.0	 0.0	 1	    1.00000	    0.00000	 115.0	 9	    1.10000	    0.90000;
	1002	 1	 18.08	 4.37	 0.0	 0.0	 1	    1.00000	    0.00000	 115.0	 9	    1.10000	    0.90000;
	1003	 1	 0.0	 0.0	 0.0	 0.0	 1	    1.00000	    0.00000	 115.0	 9	    1.10000	    0.90000;
	1004	 2	 0.0	 0.0	 0.0	 0.0	 1	    1.00000	    0.00000	 230.0	 9	    1.10000	    0.90000;
	1005	 1	 0.0	 0.0	 0.0	 0.0	 1	    1.00000	    0.00000	 115.0	 9	    1.10000	    0.90000;
	1006	 2	 0.0	 0.0	 0.0	 0.0	 1	    1.00000	    0.00000	 13.8	 9	    1.10000	    0.90000;
	1007	 1	 8.22	 1.99	 0.0	 -0.82	 1	    1.00000	    0.00000	 115.0	 9	    1.10000	    0.90000;
	1008	 1	 0.0	 0.0	 0.0	 0.0	 1	    1.00000	    0.00000	 115.0	 9	    1.10000	    0.90000;
	1009	 2	 0.0	 0.0	 0.0	 0.0	 1	    1.00000	    0.00000	 13.8	 9	    1.10000	    0.90000;
	1010	 1	 0.0	 0.0	 0.0	 -3.07	 1	    1.00000	    0.00000	 115.0	 9	    1.10000	    0.90000;
	1011	 2	 0.0	 0.0	 0.0	 0.0	 1	    1.00000	    0.00000	 22.0	 9	    1.10000	    0.90000;
	1012	 1	 3.51	 0.85	 0.0	 9.5	 1	    1.00000	    0.00000	 115.0	 9	    1.10000	    0.90000;
	1013	 1	 34.29	 8.28	 0.0	 0.0	 1	    1.00000	    0.00000	 115.0	 9	    1.10000	    0.90000;
	1014	 1	 2.60	 0.63	 0.0	 0.0	 1	    1.00000	    0.00000	 115.0	 9	    1.10000	    0.90000;
	1015	 1	 8.81	 2.13	 0.0	 0.0	 1	    1.00000	    0.00000	 115.0	 9	    1.10000	    0.90000;
	1016	 1	 3.39	 0.82	 0.0	 30.0	 1	    1.00000	    0.00000	 115.0	 9	    1.10000	    0.90000;
	1017	 1	 21.52	 5.20	 0.0	 0.0	 1	    1.00000	    0.00000	 115.0	 9	    1.10000	    0.90000;
	1018	 1	 0.08	 0.02	 0.0	 0.0	 1	    1.00000	    0.00000	 115.0	 9	    1.10000	    0.90000;
	1019	 1	 72.48	 17.50	 0.0	 142.98	 1	    1.00000	    0.00000	 115.0	 9	    1.10000	    0.90000;
	1020	 1	 0.0	 0.0	 0.0	 67.23	 1	    1.00000	    0.00000	 115.0	 9	    1.10000	    0.90000;
	1021	 2	 0.0	 0.0	 0.0	 0.0	 1	    1.00000	    0.00000	 13.8	 9	    1.10000	    0.90000;
	1022	 1	 0.0	 0.0	 0.0	 0.0	 1	    1.00000	    0.00000	 115.0	 9	    1.10000	    0.90000;
	1023	 2	 0.0	 0.0	 0.0	 0.0	 1	    1.00000	    0.00000	 13.8	 9	    1.10000	    0.90000;
	1024	 1	 73.96	 17.86	 0.0	 0.0	 1	    1.00000	    0.00000	 115.0	 9	    1.10000	    0.90000;
	1025	 1	 0.0	 0.0	 0.0	 0.0	 1	    1.00000	    0.00000	 115.0	 9	    1.10000	    0.90000;
	1026	 2	 0.0	 0.0	 0.0	 0.0	 1	    1.00000	    0.00000	 13.8	 9	    1.10000	    0.90000;
	1027	 1	 118.74	 28.68	 0.0	 75.0	 1	    1.00000	    0.00000	 115.0	 9	    1.10000	    0.90000;
	1028	 1	 11.74	 2.84	 0.0	 0.0	 1	    1.00000	    0.00000	 115.0	 9	    1.10000	    0.90000;
	1029	 1	 97.59	 23.57	 0.0	 40.0	 1	    1.00000	    0.00000	 115.0	 9	    1.10000	    0.90000;
	1030	 1	 28.90	 6.98	 0.0	 0.0	 1	    1.00000	    0.00000	 115.0	 9	    1.10000	    0.90000;
	1031	 1	 10.85	 2.62	 0.0	 0.0	 1	    1.00000	    0.00000	 115.0	 9	    1.10000	    0.90000;
	1032	 1	 0.0	 0.0	 0.0	 0.0	 1	    1.00000	    0.00000	 115.0	 9	    1.10000	    0.90000;
	1033	 2	 0.0	 0.0	 0.0	 50.0	 1	    1.00000	    0.00000	 230.0	 9	    1.10000	    0.90000;
	1034	 1	 0.0	 0.0	 0.0	 0.0	 1	    1.00000	    0.00000	 115.0	 9	    1.10000	    0.90000;
	1035	 2	 0.0	 0.0	 0.0	 0.0	 1	    1.00000	    0.00000	 13.8	 9	    1.10000	    0.90000;
	1036	 1	 15.96	 3.85	 0.0	 0.0	 1	    1.00000	    0.00000	 115.0	 9	    1.10000	    0.90000;
	1037	 1	 119.95	 28.97	 0.0	 0.0	 1	    1.00000	    0.00000	 115.0	 9	    1.10000	    0.90000;
	1038	 1	 0.0	 0.0	 0.0	 0.0	 1	    1.00000	    0.00000	 115.0	 9	    1.10000	    0.90000;
	1039	 2	 0.0	 0.0	 0.0	 0.0	 1	    1.00000	    0.00000	 22.0	 9	    1.10000	    0.90000;
	1040	 1	 52.04	 12.57	 0.0	 0.0	 1	    1.00000	    0.00000	 115.0	 9	    1.10000	    0.90000;
	1041	 1	 0.0	 0.0	 0.0	 0.0	 1	    1.00000	    0.00000	 115.0	 9	    1.10000	    0.90000;
	1042	 2	 0.0	 0.0	 0.0	 0.0	 1	    1.00000	    0.00000	 13.8	 9	    1.10000	    0.90000;
	1043	 2	 0.0	 0.0	 0.0	 0.0	 1	    1.00000	    0.00000	 13.8	 9	    1.10000	    0.90000;
	1044	 1	 17.22	 4.16	 0.0	 0.0	 1	    1.00000	    0.00000	 115.0	 9	    1.10000	    0.90000;
	1045	 1	 115.63	 27.93	 0.0	 0.0	 1	    1.00000	    0.00000	 115.0	 9	    1.10000	    0.90000;
	1046	 1	 13.00	 3.14	 0.0	 12.0	 1	    1.00000	    0.00000	 115.0	 9	    1.10000	    0.90000;
	1047	 1	 0.0	 0.0	 0.0	 0.0	 1	    1.00000	    0.00000	 115.0	 9	    1.10000	    0.90000;
	1048	 2	 0.0	 0.0	 0.0	 0.0	 1	    1.00000	    0.00000	 18.0	 9	    1.10000	    0.90000;
	1049	 2	 0.0	 0.0	 0.0	 0.0	 1	    1.00000	    0.00000	 18.0	 9	    1.10000	    0.90000;
	1050	 2	 0.0	 0.0	 0.0	 0.0	 1	    1.00000	    0.00000	 18.0	 9	    1.10000	    0.90000;
	1051	 2	 0.0	 0.0	 0.0	 0.0	 1	    1.00000	    0.00000	 18.0	 9	    1.10000	    0.90000;
	1052	 2	 0.0	 0.0	 0.0	 0.0	 1	    1.00000	    0.00000	 18.0	 9	    1.10000	    0.90000;
	1053	 2	 0.0	 0.0	 0.0	 0.0	 1	    1.00000	    0.00000	 230.0	 9	    1.10000	    0.90000;
	1054	 1	 17.59	 4.25	 0.0	 0.0	 1	    1.00000	    0.00000	 115.0	 9	    1.10000	    0.90000;
	1055	 1	 4.67	 1.13	 0.0	 0.0	 1	    1.00000	    0.00000	 115.0	 9	    1.10000	    0.90000;
	1056	 1	 0.0	 0.0	 0.0	 59.97	 1	    1.00000	    0.00000	 115.0	 9	    1.10000	    0.90000;
	1057	 2	 0.0	 0.0	 0.0	 0.0	 1	    1.00000	    0.00000	 18.0	 9	    1.10000	    0.90000;
	1058	 1	 15.79	 3.81	 0.0	 0.0	 1	    1.00000	    0.00000	 115.0	 9	    1.10000	    0.90000;
	1059	 2	 0.0	 0.0	 0.0	 0.0	 1	    1.00000	    0.00000	 22.0	 9	    1.10000	    0.90000;
	1060	 2	 0.0	 0.0	 0.0	 0.0	 1	    1.00000	    0.00000	 22.0	 9	    1.10000	    0.90000;
	1061	 1	 0.0	 0.0	 0.0	 0.0	 1	    1.00000	    0.00000	 115.0	 9	    1.10000	    0.90000;
	1062	 2	 0.0	 0.0	 0.0	 0.0	 1	    1.00000	    0.00000	 13.8	 9	    1.10000	    0.90000;
	1063	 2	 0.0	 0.0	 0.0	 0.0	 1	    1.00000	    0.00000	 13.8	 9	    1.10000	    0.90000;
	1064	 1	 145.19	 35.07	 0.0	 0.0	 1	    1.00000	    0.00000	 115.0	 9	    1.10000	    0.90000;
	1065	 1	 0.0	 0.0	 0.0	 0.0	 1	    1.00000	    0.00000	 115.0	 9	    1.10000	    0.90000;
	1066	 2	 0.0	 0.0	 0.0	 0.0	 1	    1.00000	    0.00000	 13.8	 9	    1.10000	    0.90000;
	1067	 1	 119.14	 28.77	 0.0	 0.0	 1	    1.00000	    0.00000	 115.0	 9	    1.10000	    0.90000;
	1068	 1	 69.69	 16.83	 0.0	 0.0	 1	    1.00000	    0.00000	 115.0	 9	    1.10000	    0.90000;
	1069	 1	 0.0	 0.0	 0.0	 0.0	 1	    1.00000	    0.00000	 115.0	 9	    1.10000	    0.90000;
	1070	 2	 0.0	 0.0	 0.0	 0.0	 1	    1.00000	    0.00000	 13.8	 9	    1.10000	    0.90000;
	1071	 1	 107.30	 25.91	 0.0	 0.0	 1	    1.00000	    0.00000	 115.0	 9	    1.10000	    0.90000;
	1072	 2	 0.0	 0.0	 0.0	 0.0	 1	    1.00000	    0.00000	 18.0	 9	    1.10000	    0.90000;
	1073	 2	 0.0	 0.0	 0.0	 0.0	 1	    1.00000	    0.00000	 18.0	 9	    1.10000	    0.90000;
	1074	 2	 0.0	 0.0	 0.0	 0.0	 1	    1.00000	    0.00000	 18.0	 9	    1.10000	    0.90000;
	1075	 2	 0.0	 0.0	 0.0	 0.0	 1	    1.00000	    0.00000	 18.0	 9	    1.10000	    0.90000;
	1076	 2	 0.0	 0.0	 0.0	 0.0	 1	    1.00000	    0.00000	 18.0	 9	    1.10000	    0.90000;
	1077	 2	 0.0	 0.0	 0.0	 0.0	 1	    1.00000	    0.00000	 18.0	 9	    1.10000	    0.90000;
	1078	 2	 0.0	 0.0	 0.0	 0.0	 1	    1.00000	    0.00000	 18.0	 9	    1.10000	    0.90000;
	1079	 2	 0.0	 0.0	 0.0	 0.0	 1	    1.00000	    0.00000	 500.0	 9	    1.10000	    0.90000;
	1080	 2	 0.0	 0.0	 0.0	 0.0	 1	    1.00000	    0.00000	 18.0	 9	    1.10000	    0.90000;
	1081	 2	 0.0	 0.0	 0.0	 56.9	 1	    1.00000	    0.00000	 230.0	 9	    1.10000	    0.90000;
	1082	 2	 0.0	 0.0	 0.0	 0.0	 1	    1.00000	    0.00000	 115.0	 9	    1.10000	    0.90000;
	1083	 1	 46.87	 11.32	 0.0	 26.15	 1	    1.00000	    0.00000	 115.0	 9	    1.10000	    0.90000;
	1084	 2	 0.0	 0.0	 0.0	 0.0	 1	    1.00000	    0.00000	 115.0	 9	    1.10000	    0.90000;
	1085	 1	 24.99	 6.03	 0.0	 0.0	 1	    1.00000	    0.00000	 115.0	 9	    1.10000	    0.90000;
	1086	 1	 46.54	 11.24	 0.0	 30.0	 1	    1.00000	    0.00000	 115.0	 9	    1.10000	    0.90000;
	1087	 1	 1.07	 0.26	 0.0	 8.66	 1	    1.00000	    0.00000	 115.0	 9	    1.10000	    0.90000;
	1088	 2	 0.0	 0.0	 0.0	 0.0	 1	    1.00000	    0.00000	 115.0	 9	    1.10000	    0.90000;
	1089	 1	 47.63	 11.50	 0.0	 0.0	 1	    1.00000	    0.00000	 115.0	 9	    1.10000	    0.90000;
	1090	 2	 0.0	 0.0	 0.0	 0.0	 1	    1.00000	    0.00000	 115.0	 9	    1.10000	    0.90000;
	1091	 1	 13.63	 3.29	 0.0	 0.0	 1	    1.00000	    0.00000	 161.0	 9	    1.10000	    0.90000;
	2001	 1	 56.74	 13.70	 0.0	 0.0	 2	    1.00000	    0.00000	 161.0	 11	    1.10000	    0.90000;
	2002	 1	 0.0	 0.0	 0.0	 0.0	 2	    1.00000	    0.00000	 500.0	 11	    1.10000	    0.90000;
	2003	 1	 0.0	 0.0	 0.0	 0.0	 2	    1.00000	    0.00000	 161.0	 11	    1.10000	    0.90000;
	2004	 2	 0.0	 0.0	 0.0	 0.0	 2	    1.00000	    0.00000	 13.8	 11	    1.10000	    0.90000;
	2005	 2	 0.0	 0.0	 0.0	 0.0	 2	    1.00000	    0.00000	 13.8	 11	    1.10000	    0.90000;
	2006	 2	 0.0	 0.0	 0.0	 0.0	 2	    1.00000	    0.00000	 13.8	 11	    1.10000	    0.90000;
	2007	 1	 11.19	 2.70	 0.0	 0.0	 2	    1.00000	    0.00000	 161.0	 11	    1.10000	    0.90000;
	2008	 1	 9.46	 2.28	 0.0	 0.0	 2	    1.00000	    0.00000	 161.0	 10	    1.10000	    0.90000;
	2009	 1	 45.92	 11.09	 0.0	 113.65	 2	    1.00000	    0.00000	 161.0	 11	    1.10000	    0.90000;
	2010	 1	 66.65	 16.09	 0.0	 22.39	 2	    1.00000	    0.00000	 161.0	 10	    1.10000	    0.90000;
	2011	 1	 0.0	 0.0	 0.0	 0.0	 2	    1.00000	    0.00000	 500.0	 10	    1.10000	    0.90000;
	2012	 1	 0.0	 0.0	 0.0	 0.0	 2	    1.00000	    0.00000	 161.0	 10	    1.10000	    0.90000;
	2013	 2	 0.0	 0.0	 0.0	 0.0	 2	    1.00000	    0.00000	 18.0	 10	    1.10000	    0.90000;
	2014	 1	 29.83	 7.20	 0.0	 0.0	 2	    1.00000	    0.00000	 161.0	 10	    1.10000	    0.90000;
	2015	 1	 5.50	 1.33	 0.0	 0.0	 2	    1.00000	    0.00000	 161.0	 11	    1.10000	    0.90000;
	2016	 1	 81.27	 19.63	 0.0	 0.0	 2	    1.00000	    0.00000	 161.0	 11	    1.10000	    0.90000;
	2017	 1	 0.0	 0.0	 0.0	 -200.0	 2	    1.00000	    0.00000	 500.0	 10	    1.10000	    0.90000;
	2018	 1	 0.0	 0.0	 0.0	 0.0	 2	    1.00000	    0.00000	 161.0	 10	    1.10000	    0.90000;
	2019	 2	 0.0	 0.0	 0.0	 0.0	 2	    1.00000	    0.00000	 20.0	 10	    1.10000	    0.90000;
	2020	 1	 56.28	 13.59	 0.0	 0.0	 2	    1.00000	    0.00000	 161.0	 11	    1.10000	    0.90000;
	2021	 1	 0.0	 0.0	 0.0	 0.0	 2	    1.00000	    0.00000	 500.0	 11	    1.10000	    0.90000;
	2022	 1	 13.56	 3.28	 0.0	 0.0	 2	    1.00000	    0.00000	 161.0	 11	    1.10000	    0.90000;
	2023	 2	 0.0	 0.0	 0.0	 0.0	 2	    1.00000	    0.00000	 13.8	 11	    1.10000	    0.90000;
	2024	 2	 0.0	 0.0	 0.0	 0.0	 2	    1.00000	    0.00000	 13.8	 11	    1.10000	    0.90000;
	2025	 1	 46.48	 11.23	 0.0	 0.0	 2	    1.00000	    0.00000	 161.0	 11	    1.10000	    0.90000;
	2026	 1	 21.79	 5.26	 0.0	 0.0	 2	    1.00000	    0.00000	 161.0	 10	    1.10000	    0.90000;
	2027	 1	 4.16	 1.01	 0.0	 0.0	 2	    1.00000	    0.00000	 161.0	 11	    1.10000	    0.90000;
	2028	 1	 16.71	 4.03	 0.0	 0.0	 2	    1.00000	    0.00000	 161.0	 11	    1.10000	    0.90000;
	2029	 1	 3.75	 0.91	 0.0	 0.0	 2	    1.00000	    0.00000	 161.0	 10	    1.10000	    0.90000;
	2030	 1	 55.32	 13.36	 0.0	 0.0	 2	    1.00000	    0.00000	 161.0	 11	    1.10000	    0.90000;
	2031	 1	 6.77	 1.63	 0.0	 0.0	 2	    1.00000	    0.00000	 161.0	 10	    1.10000	    0.90000;
	2032	 1	 3.93	 0.95	 0.0	 0.0	 2	    1.00000	    0.00000	 161.0	 11	    1.10000	    0.90000;
	2033	 1	 15.92	 3.85	 0.0	 0.0	 2	    1.00000	    0.00000	 161.0	 11	    1.10000	    0.90000;
	2034	 1	 6.26	 1.51	 0.0	 0.0	 2	    1.00000	    0.00000	 161.0	 11	    1.10000	    0.90000;
	2035	 1	 5.49	 1.33	 0.0	 0.0	 2	    1.00000	    0.00000	 161.0	 10	    1.10000	    0.90000;
	2036	 1	 48.79	 11.78	 0.0	 0.0	 2	    1.00000	    0.00000	 161.0	 11	    1.10000	    0.90000;
	2037	 1	 4.11	 0.99	 0.0	 0.0	 2	    1.00000	    0.00000	 161.0	 11	    1.10000	    0.90000;
	2038	 1	 3.05	 0.74	 0.0	 0.0	 2	    1.00000	    0.00000	 161.0	 11	    1.10000	    0.90000;
	2039	 1	 6.52	 1.58	 0.0	 0.0	 2	    1.00000	    0.00000	 161.0	 11	    1.10000	    0.90000;
	2040	 1	 18.65	 4.51	 0.0	 0.0	 2	    1.00000	    0.00000	 161.0	 11	    1.10000	    0.90000;
	2041	 1	 0.0	 0.0	 0.0	 0.0	 2	    1.00000	    0.00000	 161.0	 10	    1.10000	    0.90000;
	2042	 2	 0.0	 0.0	 0.0	 0.0	 2	    1.00000	    0.00000	 18.0	 10	    1.10000	    0.90000;
	2043	 1	 4.97	 1.20	 0.0	 0.0	 2	    1.00000	    0.00000	 161.0	 11	    1.10000	    0.90000;
	2044	 1	 32.15	 7.76	 0.0	 0.0	 2	    1.00000	    0.00000	 161.0	 11	    1.10000	    0.90000;
	2045	 1	 26.53	 6.40	 0.0	 0.0	 2	    1.00000	    0.00000	 161.0	 11	    1.10000	    0.90000;
	2046	 1	 25.96	 6.27	 0.0	 0.0	 2	    1.00000	    0.00000	 161.0	 11	    1.10000	    0.90000;
	2047	 1	 17.55	 4.24	 0.0	 0.0	 2	    1.00000	    0.00000	 161.0	 11	    1.10000	    0.90000;
	2048	 1	 7.53	 1.82	 0.0	 0.0	 2	    1.00000	    0.00000	 161.0	 10	    1.10000	    0.90000;
	2049	 1	 13.57	 3.28	 0.0	 0.0	 2	    1.00000	    0.00000	 161.0	 10	    1.10000	    0.90000;
	2050	 1	 4.29	 1.04	 0.0	 0.0	 2	    1.00000	    0.00000	 161.0	 11	    1.10000	    0.90000;
	2051	 1	 20.94	 5.06	 0.0	 0.0	 2	    1.00000	    0.00000	 161.0	 11	    1.10000	    0.90000;
	2052	 1	 29.14	 7.04	 0.0	 0.0	 2	    1.00000	    0.00000	 161.0	 10	    1.10000	    0.90000;
	2053	 1	 34.18	 8.25	 0.0	 0.0	 2	    1.00000	    0.00000	 161.0	 11	    1.10000	    0.90000;
	2054	 1	 0.0	 0.0	 0.0	 0.0	 2	    1.00000	    0.00000	 500.0	 11	    1.10000	    0.90000;
	2055	 1	 58.21	 14.06	 0.0	 0.0	 2	    1.00000	    0.00000	 161.0	 11	    1.10000	    0.90000;
	2056	 2	 0.0	 0.0	 0.0	 0.0	 2	    1.00000	    0.00000	 18.0	 11	    1.10000	    0.90000;
	2057	 2	 0.0	 0.0	 0.0	 0.0	 2	    1.00000	    0.00000	 18.0	 11	    1.10000	    0.90000;
	2058	 1	 0.0	 0.0	 0.0	 0.0	 2	    1.00000	    0.00000	 161.0	 10	    1.10000	    0.90000;
	2059	 2	 0.0	 0.0	 0.0	 0.0	 2	    1.00000	    0.00000	 13.8	 10	    1.10000	    0.90000;
	2060	 1	 4.46	 1.08	 0.0	 0.0	 2	    1.00000	    0.00000	 161.0	 11	    1.10000	    0.90000;
	2061	 1	 0.0	 0.0	 0.0	 0.0	 2	    1.00000	    0.00000	 161.0	 10	    1.10000	    0.90000;
	2062	 2	 0.0	 0.0	 0.0	 0.0	 2	    1.00000	    0.00000	 18.0	 10	    1.10000	    0.90000;
	2063	 1	 76.99	 18.59	 0.0	 40.0	 2	    1.00000	    0.00000	 161.0	 11	    1.10000	    0.90000;
	2064	 1	 11.79	 2.85	 0.0	 0.0	 2	    1.00000	    0.00000	 161.0	 11	    1.10000	    0.90000;
	2065	 1	 91.93	 22.20	 0.0	 94.98	 2	    1.00000	    0.00000	 161.0	 11	    1.10000	    0.90000;
	2066	 1	 8.34	 2.02	 0.0	 0.0	 2	    1.00000	    0.00000	 161.0	 10	    1.10000	    0.90000;
	2067	 1	 63.32	 15.29	 0.0	 0.0	 2	    1.00000	    0.00000	 161.0	 11	    1.10000	    0.90000;
	2068	 1	 6.76	 1.63	 0.0	 0.0	 2	    1.00000	    0.00000	 161.0	 11	    1.10000	    0.90000;
	2069	 1	 25.72	 6.21	 0.0	 110.69	 2	    1.00000	    0.00000	 161.0	 11	    1.10000	    0.90000;
	2070	 1	 0.0	 0.0	 0.0	 0.0	 2	    1.00000	    0.00000	 161.0	 11	    1.10000	    0.90000;
	2071	 2	 0.0	 0.0	 0.0	 0.0	 2	    1.00000	    0.00000	 18.0	 11	    1.10000	    0.90000;
	2072	 1	 11.39	 2.75	 0.0	 0.0	 2	    1.00000	    0.00000	 161.0	 11	    1.10000	    0.90000;
	2073	 1	 0.0	 0.0	 0.0	 0.0	 2	    1.00000	    0.00000	 161.0	 10	    1.10000	    0.90000;
	2074	 1	 0.0	 0.0	 0.0	 0.0	 2	    1.00000	    0.00000	 115.0	 10	    1.10000	    0.90000;
	2075	 1	 0.0	 0.0	 0.0	 0.0	 2	    1.00000	    0.00000	 115.0	 10	    1.10000	    0.90000;
	2076	 2	 0.0	 0.0	 0.0	 0.0	 2	    1.00000	    0.00000	 24.0	 10	    1.10000	    0.90000;
	2077	 1	 0.0	 0.0	 0.0	 0.0	 2	    1.00000	    0.00000	 161.0	 11	    1.10000	    0.90000;
	2078	 2	 0.0	 0.0	 0.0	 0.0	 2	    1.00000	    0.00000	 13.8	 11	    1.10000	    0.90000;
	2079	 1	 5.26	 1.27	 0.0	 0.0	 2	    1.00000	    0.00000	 161.0	 10	    1.10000	    0.90000;
	2080	 1	 19.86	 4.80	 0.0	 0.0	 2	    1.00000	    0.00000	 161.0	 11	    1.10000	    0.90000;
	2081	 1	 5.23	 1.26	 0.0	 0.0	 2	    1.00000	    0.00000	 161.0	 11	    1.10000	    0.90000;
	2082	 1	 69.25	 16.73	 0.0	 0.0	 2	    1.00000	    0.00000	 161.0	 11	    1.10000	    0.90000;
	2083	 2	 0.0	 0.0	 0.0	 0.0	 2	    1.00000	    0.00000	 20.0	 11	    1.10000	    0.90000;
	2084	 2	 0.0	 0.0	 0.0	 0.0	 2	    1.00000	    0.00000	 20.0	 11	    1.10000	    0.90000;
	2085	 2	 0.0	 0.0	 0.0	 0.0	 2	    1.00000	    0.00000	 20.0	 11	    1.10000	    0.90000;
	2086	 1	 2.57	 0.62	 0.0	 0.0	 2	    1.00000	    0.00000	 161.0	 11	    1.10000	    0.90000;
	2087	 1	 9.27	 2.24	 0.0	 0.0	 2	    1.00000	    0.00000	 161.0	 10	    1.10000	    0.90000;
	2088	 1	 0.0	 0.0	 0.0	 0.0	 2	    1.00000	    0.00000	 161.0	 11	    1.10000	    0.90000;
	2089	 2	 0.0	 0.0	 0.0	 0.0	 2	    1.00000	    0.00000	 24.0	 11	    1.10000	    0.90000;
	2090	 1	 2.84	 0.69	 0.0	 0.0	 2	    1.00000	    0.00000	 161.0	 11	    1.10000	    0.90000;
	2091	 1	 20.00	 4.83	 0.0	 0.0	 2	    1.00000	    0.00000	 161.0	 10	    1.10000	    0.90000;
	2092	 1	 28.29	 6.83	 0.0	 0.0	 2	    1.00000	    0.00000	 161.0	 11	    1.10000	    0.90000;
	2093	 1	 0.0	 0.0	 0.0	 0.0	 2	    1.00000	    0.00000	 161.0	 10	    1.10000	    0.90000;
	2094	 2	 0.0	 0.0	 0.0	 0.0	 2	    1.00000	    0.00000	 13.8	 10	    1.10000	    0.90000;
	2095	 2	 0.0	 0.0	 0.0	 0.0	 2	    1.00000	    0.00000	 13.8	 10	    1.10000	    0.90000;
	2096	 1	 0.0	 0.0	 0.0	 -122.33	 2	    1.00000	    0.00000	 500.0	 10	    1.10000	    0.90000;
	2097	 1	 0.0	 0.0	 0.0	 0.0	 2	    1.00000	    0.00000	 230.0	 10	    1.10000	    0.90000;
	2098	 1	 0.0	 0.0	 0.0	 0.0	 2	    1.00000	    0.00000	 161.0	 10	    1.10000	    0.90000;
	2099	 2	 0.0	 0.0	 0.0	 0.0	 2	    1.00000	    0.00000	 18.0	 10	    1.10000	    0.90000;
	2100	 2	 0.0	 0.0	 0.0	 0.0	 2	    1.00000	    0.00000	 18.0	 10	    1.10000	    0.90000;
	2101	 1	 0.0	 0.0	 0.0	 0.0	 2	    1.00000	    0.00000	 500.0	 11	    1.10000	    0.90000;
	2102	 1	 0.0	 0.0	 0.0	 0.0	 2	    1.00000	    0.00000	 161.0	 11	    1.10000	    0.90000;
	2103	 2	 0.0	 0.0	 0.0	 0.0	 2	    1.00000	    0.00000	 20.0	 11	    1.10000	    0.90000;
	2104	 2	 0.0	 0.0	 0.0	 0.0	 2	    1.00000	    0.00000	 20.0	 11	    1.10000	    0.90000;
	2105	 2	 0.0	 0.0	 0.0	 0.0	 2	    1.00000	    0.00000	 20.0	 11	    1.10000	    0.90000;
	2106	 1	 16.89	 4.08	 0.0	 0.0	 2	    1.00000	    0.00000	 161.0	 11	    1.10000	    0.90000;
	2107	 1	 86.99	 21.01	 0.0	 0.0	 2	    1.00000	    0.00000	 161.0	 11	    1.10000	    0.90000;
	2108	 1	 2.51	 0.61	 0.0	 0.0	 2	    1.00000	    0.00000	 161.0	 10	    1.10000	    0.90000;
	2109	 1	 39.67	 9.58	 0.0	 0.0	 2	    1.00000	    0.00000	 161.0	 11	    1.10000	    0.90000;
...
];

%% generator data
%	bus	Pg	Qg	Qmax	Qmin	Vg	mBase	status	Pmax	Pmin	Pc1	Pc2	Qc1min	Qc1max	Qc2min	Qc2max	ramp_agc	ramp_10	ramp_30	ramp_q	apf
mpc.gen = [
	1004	 173.5625	 0.0	 134.0	 -134.0	 1.0	 253.2	 1	 268	 79.125	 0.0	 0.0	 0.0	 0.0	 0.0	 0.0	 0.0	 0.0	 0.0	 0.0	 211.0; % NG
	1006	 55.4325	 0.0	 49.0	 -49.0	 1.0	 41.16	 1	 98	 12.865	 0.0	 0.0	 0.0	 0.0	 0.0	 0.0	 0.0	 0.0	 0.0	 0.0	 34.3; % NG
	1009	 68.9675	 0.0	 54.0	 -54.0	 1.0	 99.0	 1	 107	 30.935	 0.0	 0.0	 0.0	 0.0	 0.0	 0.0	 0.0	 0.0	 0.0	 0.0	 82.5; % NG
	1011	 24.25	 0.0	 24.0	 -24.0	 1.0	 12.0	 1	 47	 1.5	 0.0	 0.0	 0.0	 0.0	 0.0	 0.0	 0.0	 0.0	 0.0	 0.0	 10.0; % PEL
	1021	 175.9075	 0.0	 139.0	 -139.0	 1.0	 239.4	 1	 277	 74.815	 0.0	 0.0	 0.0	 0.0	 0.0	 0.0	 0.0	 0.0	 0.0	 0.0	 199.5; % NG
	1023	 114.25	 0.0	 81.0	 -81.0	 1.0	 216.0	 1	 161	 67.5	 0.0	 0.0	 0.0	 0.0	 0.0	 0.0	 0.0	 0.0	 0.0	 0.0	 180.0; % NG
	1026	 101.2875	 0.0	 78.0	 -78.0	 1.0	 149.04	 1	 156	 46.575	 0.0	 0.0	 0.0	 0.0	 0.0	 0.0	 0.0	 0.0	 0.0	 0.0	 124.2; % NG
	1033	 184.125	 0.0	 170.4	 -170.4	 1.0	 333.6	 1	 264	 104.25	 0.0	 0.0	 0.0	 0.0	 0.0	 0.0	 0.0	 0.0	 0.0	 0.0	 278.0; % NG
	1035	 67.875	 0.0	 51.0	 -51.0	 1.0	 108.0	 1	 102	 33.75	 0.0	 0.0	 0.0	 0.0	 0.0	 0.0	 0.0	 0.0	 0.0	 0.0	 90.0; % NG
	1039	 240.1575	 0.0	 213.0	 -213.0	 1.0	 177.0	 1	 425	 55.315	 0.0	 0.0	 0.0	 0.0	 0.0	 0.0	 0.0	 0.0	 0.0	 0.0	 147.5; % NG
	1042	 0.0	 0.0	 148.0	 -148.0	 1.0	 146.28	 0	 295	 18.285	 0.0	 0.0	 0.0	 0.0	 0.0	 0.0	 0.0	 0.0	 0.0	 0.0	 121.9; % NG
	1043	 38.525	 0.0	 28.0	 -28.0	 1.0	 70.56	 1	 55	 22.05	 0.0	 0.0	 0.0	 0.0	 0.0	 0.0	 0.0	 0.0	 0.0	 0.0	 58.8; % NG
	1048	 0.0	 0.0	 165.53	 -80.0	 1.0	 390.24	 0	 160	 48.78	 0.0	 0.0	 0.0	 0.0	 0.0	 0.0	 0.0	 0.0	 0.0	 0.0	 325.2; % NG
	1049	 0.0	 0.0	 165.53	 -123.0	 1.0	 390.24	 0	 246	 48.78	 0.0	 0.0	 0.0	 0.0	 0.0	 0.0	 0.0	 0.0	 0.0	 0.0	 325.2; % COW
	1050	 112.205	 0.0	 106.0	 -106.0	 1.0	 107.28	 1	 211	 13.41	 0.0	 0.0	 0.0	 0.0	 0.0	 0.0	 0.0	 0.0	 0.0	 0.0	 89.4; % NG
	1051	 71.705	 0.0	 65.0	 -65.0	 1.0	 107.28	 1	 130	 13.41	 0.0	 0.0	 0.0	 0.0	 0.0	 0.0	 0.0	 0.0	 0.0	 0.0	 89.4; % NG
	1052	 29.705	 11.25	 45.5	 -23.0	 1.0	 107.28	 1	 46	 13.41	 0.0	 0.0	 0.0	 0.0	 0.0	 0.0	 0.0	 0.0	 0.0	 0.0	 89.4; % NG
	1053	 0.0	 0.0	 91.01	 -19.85	 1.0	 214.56	 0	 26	 53.64	 0.0	 0.0	 0.0	 0.0	 0.0	 0.0	 0.0	 0.0	 0.0	 0.0	 178.8; % NG
	1057	 0.0	 0.0	 69.0	 -69.0	 1.0	 144.0	 0	 138	 18.0	 0.0	 0.0	 0.0	 0.0	 0.0	 0.0	 0.0	 0.0	 0.0	 0.0	 120.0; % NG
	1059	 0.0	 0.0	 64.0	 -64.0	 1.0	 6.72	 0	 127	 0.84	 0.0	 0.0	 0.0	 0.0	 0.0	 0.0	 0.0	 0.0	 0.0	 0.0	 5.6; % PEL
	1060	 0.0	 0.0	 1.02	 -1.0	 1.0	 2.4	 0	 2	 0.3	 0.0	 0.0	 0.0	 0.0	 0.0	 0.0	 0.0	 0.0	 0.0	 0.0	 2.0; % PEL
	1062	 0.0	 0.0	 21.0	 -21.0	 1.0	 1.8	 0	 42	 0.225	 0.0	 0.0	 0.0	 0.0	 0.0	 0.0	 0.0	 0.0	 0.0	 0.0	 1.5; % PEL
	1063	 0.0	 0.0	 29.0	 -29.0	 1.0	 276.0	 0	 57	 34.5	 0.0	 0.0	 0.0	 0.0	 0.0	 0.0	 0.0	 0.0	 0.0	 0.0	 230.0; % NG
	1066	 171.22	 0.0	 145.0	 -145.0	 1.0	 171.0	 1	 289	 53.44	 0.0	 0.0	 0.0	 0.0	 0.0	 0.0	 0.0	 0.0	 0.0	 0.0	 142.5; % COW
	1070	 226.095	 0.0	 196.0	 -196.0	 1.0	 192.6	 1	 392	 60.19	 0.0	 0.0	 0.0	 0.0	 0.0	 0.0	 0.0	 0.0	 0.0	 0.0	 160.5; % COW
	1072	 204.41	 0.0	 190.0	 -190.0	 1.0	 230.56	 1	 380	 28.82	 0.0	 0.0	 0.0	 0.0	 0.0	 0.0	 0.0	 0.0	 0.0	 0.0	 192.13; % NG
	1073	 96.91	 7.4	 97.8	 -83.0	 1.0	 230.56	 1	 165	 28.82	 0.0	 0.0	 0.0	 0.0	 0.0	 0.0	 0.0	 0.0	 0.0	 0.0	 192.13; % NG
	1074	 92.41	 9.9	 97.8	 -78.0	 1.0	 230.56	 1	 156	 28.82	 0.0	 0.0	 0.0	 0.0	 0.0	 0.0	 0.0	 0.0	 0.0	 0.0	 192.13; % NG
	1075	 232.91	 0.0	 219.0	 -219.0	 1.0	 230.56	 1	 437	 28.82	 0.0	 0.0	 0.0	 0.0	 0.0	 0.0	 0.0	 0.0	 0.0	 0.0	 192.13; % COW
	1076	 0.0	 0.0	 97.8	 -21.33	 1.0	 230.56	 0	 17	 57.64	 0.0	 0.0	 0.0	 0.0	 0.0	 0.0	 0.0	 0.0	 0.0	 0.0	 192.13; % COW
	1077	 0.0	 0.0	 97.8	 -21.33	 1.0	 230.56	 0	 21	 57.64	 0.0	 0.0	 0.0	 0.0	 0.0	 0.0	 0.0	 0.0	 0.0	 0.0	 192.13; % NG
	1078	 151.6625	 0.0	 145.0	 -145.0	 1.0	 114.6	 1	 289	 14.325	 0.0	 0.0	 0.0	 0.0	 0.0	 0.0	 0.0	 0.0	 0.0	 0.0	 95.5; % NG
	1079	 194.6625	 0.0	 477.6	 -477.6	 1.0	 114.6	 1	 375	 14.325	 0.0	 0.0	 0.0	 0.0	 0.0	 0.0	 0.0	 0.0	 0.0	 0.0	 95.5; % NG
	1080	 89.6625	 0.0	 83.0	 -83.0	 1.0	 114.6	 1	 165	 14.325	 0.0	 0.0	 0.0	 0.0	 0.0	 0.0	 0.0	 0.0	 0.0	 0.0	 95.5; % NG
	1081	 0.0	 0.0	 145.83	 -57.0	 1.0	 343.8	 0	 113	 42.975	 0.0	 0.0	 0.0	 0.0	 0.0	 0.0	 0.0	 0.0	 0.0	 0.0	 286.5; % NG
	1082	 166.125	 0.0	 138.0	 -138.0	 1.0	 180.0	 1	 276	 56.25	 0.0	 0.0	 0.0	 0.0	 0.0	 0.0	 0.0	 0.0	 0.0	 0.0	 150.0; % NG
	1084	 141.155	 0.0	 120.0	 -120.0	 1.0	 138.6	 1	 239	 43.31	 0.0	 0.0	 0.0	 0.0	 0.0	 0.0	 0.0	 0.0	 0.0	 0.0	 115.5; % NG
	1088	 180.0625	 0.0	 166.0	 -166.0	 1.0	 90.0	 1	 332	 28.125	 0.0	 0.0	 0.0	 0.0	 0.0	 0.0	 0.0	 0.0	 0.0	 0.0	 75.0; % NG
	1090	 149.0925	 0.0	 121.0	 -121.0	 1.0	 183.0	 1	 241	 57.185	 0.0	 0.0	 0.0	 0.0	 0.0	 0.0	 0.0	 0.0	 0.0	 0.0	 152.5; % NG
	1090	 78.25	 0.0	 72.0	 -72.0	 1.0	 43.2	 1	 143	 13.5	 0.0	 0.0	 0.0	 0.0	 0.0	 0.0	 0.0	 0.0	 0.0	 0.0	 36.0; % PEL
	2004	 0.0	 0.0	 199.43	 -143.0	 1.0	 470.16	 0	 286	 58.77	 0.0	 0.0	 0.0	 0.0	 0.0	 0.0	 0.0	 0.0	 0.0	 0.0	 391.8; % COW
	2005	 0.0	 0.0	 199.43	 -103.0	 1.0	 470.16	 0	 206	 58.77	 0.0	 0.0	 0.0	 0.0	 0.0	 0.0	 0.0	 0.0	 0.0	 0.0	 391.8; % NG
	2006	 0.0	 0.0	 199.43	 -43.49	 1.0	 470.16	 0	 23	 117.54	 0.0	 0.0	 0.0	 0.0	 0.0	 0.0	 0.0	 0.0	 0.0	 0.0	 391.8; % NG
	2013	 293.1125	 0.0	 256.0	 -256.0	 1.0	 240.72	 1	 511	 75.225	 0.0	 0.0	 0.0	 0.0	 0.0	 0.0	 0.0	 0.0	 0.0	 0.0	 200.6; % COW
	2019	 0.0	 0.0	 46.43	 -31.39	 1.0	 261.6	 0	 6	 65.4	 0.0	 0.0	 0.0	 0.0	 0.0	 0.0	 0.0	 0.0	 0.0	 0.0	 218.0; % NG
	2023	 45.75	 1.21	 42.42	 -40.0	 1.0	 100.0	 1	 79	 12.5	 0.0	 0.0	 0.0	 0.0	 0.0	 0.0	 0.0	 0.0	 0.0	 0.0	 83.33; % NG
	2024	 65.0	 15.915	 84.83	 -53.0	 1.0	 200.0	 1	 105	 25.0	 0.0	 0.0	 0.0	 0.0	 0.0	 0.0	 0.0	 0.0	 0.0	 0.0	 166.67; % NG
	2042	 92.925	 0.0	 78.0	 -78.0	 1.0	 95.52	 1	 156	 29.85	 0.0	 0.0	 0.0	 0.0	 0.0	 0.0	 0.0	 0.0	 0.0	 0.0	 79.6; % PEL
	2056	 0.0	 0.0	 43.0	 -43.0	 1.0	 7.2	 0	 85	 0.9	 0.0	 0.0	 0.0	 0.0	 0.0	 0.0	 0.0	 0.0	 0.0	 0.0	 6.0; % NG
	2057	 438.0	 0.0	 384.0	 -384.0	 1.0	 864.0	 1	 768	 108.0	 0.0	 0.0	 0.0	 0.0	 0.0	 0.0	 0.0	 0.0	 0.0	 0.0	 720.0; % COW
	2059	 110.0	 0.0	 95.0	 -95.0	 1.0	 96.0	 1	 190	 30.0	 0.0	 0.0	 0.0	 0.0	 0.0	 0.0	 0.0	 0.0	 0.0	 0.0	 80.0; % NG
	2062	 121.8875	 0.0	 97.0	 -97.0	 1.0	 162.48	 1	 193	 50.775	 0.0	 0.0	 0.0	 0.0	 0.0	 0.0	 0.0	 0.0	 0.0	 0.0	 135.4; % NG
	2071	 119.625	 0.0	 92.0	 -92.0	 1.0	 180.0	 1	 183	 56.25	 0.0	 0.0	 0.0	 0.0	 0.0	 0.0	 0.0	 0.0	 0.0	 0.0	 150.0; % NG
	2076	 41.625	 0.0	 36.0	 -36.0	 1.0	 36.0	 1	 72	 11.25	 0.0	 0.0	 0.0	 0.0	 0.0	 0.0	 0.0	 0.0	 0.0	 0.0	 30.0; % NG
	2078	 89.095	 0.0	 68.0	 -68.0	 1.0	 135.0	 1	 136	 42.19	 0.0	 0.0	 0.0	 0.0	 0.0	 0.0	 0.0	 0.0	 0.0	 0.0	 112.5; % NG
	2083	 47.0	 0.0	 46.0	 -46.0	 1.0	 24.0	 1	 91	 3.0	 0.0	 0.0	 0.0	 0.0	 0.0	 0.0	 0.0	 0.0	 0.0	 0.0	 20.0; % PEL
	2084	 0.0	 0.0	 82.0	 -82.0	 1.0	 24.0	 0	 164	 3.0	 0.0	 0.0	 0.0	 0.0	 0.0	 0.0	 0.0	 0.0	 0.0	 0.0	 20.0; % NG
	2085	 0.0	 0.0	 35.0	 -35.0	 1.0	 48.0	 0	 70	 6.0	 0.0	 0.0	 0.0	 0.0	 0.0	 0.0	 0.0	 0.0	 0.0	 0.0	 40.0; % NG
	2089	 82.675	 0.0	 70.0	 -70.0	 1.0	 81.12	 1	 140	 25.35	 0.0	 0.0	 0.0	 0.0	 0.0	 0.0	 0.0	 0.0	 0.0	 0.0	 67.6; % NG
	2094	 0.0	 0.0	 87.0	 -87.0	 1.0	 12.0	 0	 174	 1.5	 0.0	 0.0	 0.0	 0.0	 0.0	 0.0	 0.0	 0.0	 0.0	 0.0	 10.0; % NG
	2095	 0.0	 0.0	 224.0	 -224.0	 1.0	 95.4	 0	 448	 11.925	 0.0	 0.0	 0.0	 0.0	 0.0	 0.0	 0.0	 0.0	 0.0	 0.0	 79.5; % COW
	2099	 19.375	 0.0	 34.8	 -34.8	 1.0	 12.0	 1	 35	 3.75	 0.0	 0.0	 0.0	 0.0	 0.0	 0.0	 0.0	 0.0	 0.0	 0.0	 10.0; % COW
	2100	 126.125	 0.0	 98.0	 -98.0	 1.0	 180.0	 1	 196	 56.25	 0.0	 0.0	 0.0	 0.0	 0.0	 0.0	 0.0	 0.0	 0.0	 0.0	 150.0; % NG
	2103	 0.0	 0.0	 136.28	 -62.0	 1.0	 321.28	 0	 123	 40.16	 0.0	 0.0	 0.0	 0.0	 0.0	 0.0	 0.0	 0.0	 0.0	 0.0	 267.73; % NG
	2104	 0.0	 0.0	 136.28	 -78.0	 1.0	 321.28	 0	 156	 40.16	 0.0	 0.0	 0.0	 0.0	 0.0	 0.0	 0.0	 0.0	 0.0	 0.0	 267.73; % NG
	2105	 0.0	 0.0	 142.0	 -142.0	 1.0	 321.28	 0	 283	 40.16	 0.0	 0.0	 0.0	 0.0	 0.0	 0.0	 0.0	 0.0	 0.0	 0.0	 267.73; % NG
	2115	 62.3525	 22.51	 94.02	 -49.0	 1.0	 221.66	 1	 97	 27.705	 0.0	 0.0	 0.0	 0.0	 0.0	 0.0	 0.0	 0.0	 0.0	 0.0	 184.72; % NG
	2116	 70.3525	 18.51	 94.02	 -57.0	 1.0	 221.66	 1	 113	 27.705	 0.0	 0.0	 0.0	 0.0	 0.0	 0.0	 0.0	 0.0	 0.0	 0.0	 184.72; % NG
	2117	 127.3525	 0.0	 114.0	 -114.0	 1.0	 221.66	 1	 227	 27.705	 0.0	 0.0	 0.0	 0.0	 0.0	 0.0	 0.0	 0.0	 0.0	 0.0	 184.72; % NG
	2118	 88.8525	 9.51	 94.02	 -75.0	 1.0	 221.66	 1	 150	 27.705	 0.0	 0.0	 0.0	 0.0	 0.0	 0.0	 0.0	 0.0	 0.0	 0.0	 184.72; % NG
	2119	 72.8525	 17.51	 94.02	 -59.0	 1.0	 221.66	 1	 118	 27.705	 0.0	 0.0	 0.0	 0.0	 0.0	 0.0	 0.0	 0.0	 0.0	 0.0	 184.72; % NG
	2120	 49.8525	 27.81	 94.02	 -38.4	 1.0	 221.66	 1	 72	 27.705	 0.0	 0.0	 0.0	 0.0	 0.0	 0.0	 0.0	 0.0	 0.0	 0.0	 184.72; % NG
	2123	 186.07	 0.0	 152.0	 -152.0	 1.0	 218.04	 1	 304	 68.14	 0.0	 0.0	 0.0	 0.0	 0.0	 0.0	 0.0	 0.0	 0.0	 0.0	 181.7; % NG
	2127	 248.1125	 0.0	 432.0	 -432.0	 1.0	 346.32	 1	 388	 108.225	 0.0	 0.0	 0.0	 0.0	 0.0	 0.0	 0.0	 0.0	 0.0	 0.0	 288.6; % COW
	3004	 83.5325	 0.0	 77.0	 -77.0	 1.0	 45.0	 1	 153	 14.065	 0.0	 0.0	 0.0	 0.0	 0.0	 0.0	 0.0	 0.0	 0.0	 0.0	 37.5; % PEL
	3017	 133.7825	 0.0	 102.0	 -102.0	 1.0	 203.4	 1	 204	 63.565	 0.0	 0.0	 0.0	 0.0	 0.0	 0.0	 0.0	 0.0	 0.0	 0.0	 169.5; % NG
	3020	 119.625	 0.0	 92.0	 -92.0	 1.0	 180.0	 1	 183	 56.25	 0.0	 0.0	 0.0	 0.0	 0.0	 0.0	 0.0	 0.0	 0.0	 0.0	 150.0; % NG
	3028	 154.0	 0.0	 117.0	 -117.0	 1.0	 240.0	 1	 233	 75.0	 0.0	 0.0	 0.0	 0.0	 0.0	 0.0	 0.0	 0.0	 0.0	 0.0	 200.0; % NG
	3034	 77.9675	 0.0	 54.0	 -54.0	 1.0	 156.6	 1	 107	 48.935	 0.0	 0.0	 0.0	 0.0	 0.0	 0.0	 0.0	 0.0	 0.0	 0.0	 130.5; % NG
	3039	 201.6875	 0.0	 163.0	 -163.0	 1.0	 250.8	 1	 325	 78.375	 0.0	 0.0	 0.0	 0.0	 0.0	 0.0	 0.0	 0.0	 0.0	 0.0	 209.0; % NG
	3043	 0.0	 0.0	 2.0	 -2.0	 1.0	 1.56	 0	 3	 0.195	 0.0	 0.0	 0.0	 0.0	 0.0	 0.0	 0.0	 0.0	 0.0	 0.0	 1.3; % PEL
	3044	 0.0	 0.0	 55.0	 -55.0	 1.0	 107.28	 0	 109	 13.41	 0.0	 0.0	 0.0	 0.0	 0.0	 0.0	 0.0	 0.0	 0.0	 0.0	 89.4; % NG
	3045	 0.0	 0.0	 227.52	 -100.0	 1.0	 536.4	 0	 200	 67.05	 0.0	 0.0	 0.0	 0.0	 0.0	 0.0	 0.0	 0.0	 0.0	 0.0	 447.0; % COW
	3048	 343.1875	 0.0	 1549.2	 -1549.2	 1.0	 289.2	 1	 596	 90.375	 0.0	 0.0	 0.0	 0.0	 0.0	 0.0	 0.0	 0.0	 0.0	 0.0	 241.0; % NG
	3055	 242.97	 0.0	 197.0	 -197.0	 1.0	 294.2	 1	 394	 91.94	 0.0	 0.0	 0.0	 0.0	 0.0	 0.0	 0.0	 0.0	 0.0	 0.0	 245.17; % NG
	3056	 156.97	 0.0	 111.0	 -111.0	 1.0	 294.2	 1	 222	 91.94	 0.0	 0.0	 0.0	 0.0	 0.0	 0.0	 0.0	 0.0	 0.0	 0.0	 245.17; % NG
	3057	 161.97	 0.0	 116.0	 -116.0	 1.0	 294.2	 1	 232	 91.94	 0.0	 0.0	 0.0	 0.0	 0.0	 0.0	 0.0	 0.0	 0.0	 0.0	 245.17; % NG
	3060	 105.055	 0.0	 74.0	 -74.0	 1.0	 198.75	 1	 148	 62.11	 0.0	 0.0	 0.0	 0.0	 0.0	 0.0	 0.0	 0.0	 0.0	 0.0	 165.63; % NG
	3061	 108.055	 0.0	 77.0	 -77.0	 1.0	 198.75	 1	 154	 62.11	 0.0	 0.0	 0.0	 0.0	 0.0	 0.0	 0.0	 0.0	 0.0	 0.0	 165.63; % NG
	3062	 354.055	 0.0	 323.0	 -323.0	 1.0	 198.75	 1	 646	 62.11	 0.0	 0.0	 0.0	 0.0	 0.0	 0.0	 0.0	 0.0	 0.0	 0.0	 165.63; % NG
	3063	 109.555	 0.0	 79.0	 -79.0	 1.0	 198.75	 1	 157	 62.11	 0.0	 0.0	 0.0	 0.0	 0.0	 0.0	 0.0	 0.0	 0.0	 0.0	 165.63; % NG
	3065	 123.0925	 0.0	 108.0	 -108.0	 1.0	 96.6	 1	 216	 30.185	 0.0	 0.0	 0.0	 0.0	 0.0	 0.0	 0.0	 0.0	 0.0	 0.0	 80.5; % NG
	3068	 145.625	 0.0	 118.0	 -118.0	 1.0	 180.0	 1	 235	 56.25	 0.0	 0.0	 0.0	 0.0	 0.0	 0.0	 0.0	 0.0	 0.0	 0.0	 150.0; % NG
	3071	 147.4125	 0.0	 116.0	 -116.0	 1.0	 204.24	 1	 231	 63.825	 0.0	 0.0	 0.0	 0.0	 0.0	 0.0	 0.0	 0.0	 0.0	 0.0	 170.2; % NG
	3074	 117.7125	 0.0	 99.0	 -99.0	 1.0	 119.76	 1	 198	 37.425	 0.0	 0.0	 0.0	 0.0	 0.0	 0.0	 0.0	 0.0	 0.0	 0.0	 99.8; % COW
	3081	 272.6875	 0.0	 226.0	 -226.0	 1.0	 298.8	 1	 452	 93.375	 0.0	 0.0	 0.0	 0.0	 0.0	 0.0	 0.0	 0.0	 0.0	 0.0	 249.0; % NG
	3084	 151.5925	 0.0	 108.0	 -108.0	 1.0	 279.0	 1	 216	 87.185	 0.0	 0.0	 0.0	 0.0	 0.0	 0.0	 0.0	 0.0	 0.0	 0.0	 232.5; % NG
	3086	 44.5625	 0.0	 31.0	 -31.0	 1.0	 90.0	 1	 61	 28.125	 0.0	 0.0	 0.0	 0.0	 0.0	 0.0	 0.0	 0.0	 0.0	 0.0	 75.0; % NG
	3087	 0.0	 0.0	 15.97	 -10.8	 1.0	 90.0	 0	 8	 22.5	 0.0	 0.0	 0.0	 0.0	 0.0	 0.0	 0.0	 0.0	 0.0	 0.0	 75.0; % PEL
	3092	 246.0	 0.0	 209.0	 -209.0	 1.0	 240.0	 1	 417	 75.0	 0.0	 0.0	 0.0	 0.0	 0.0	 0.0	 0.0	 0.0	 0.0	 0.0	 200.0; % COW
	3095	 139.1125	 0.0	 117.0	 -117.0	 1.0	 144.72	 1	 233	 45.225	 0.0	 0.0	 0.0	 0.0	 0.0	 0.0	 0.0	 0.0	 0.0	 0.0	 120.6; % NG
	3098	 118.5	 0.0	 89.0	 -89.0	 1.0	 192.0	 1	 177	 60.0	 0.0	 0.0	 0.0	 0.0	 0.0	 0.0	 0.0	 0.0	 0.0	 0.0	 160.0; % NG
	3105	 68.625	 0.0	 58.0	 -58.0	 1.0	 18.0	 1	 115	 22.25	 0.0	 0.0	 0.0	 0.0	 0.0	 0.0	 0.0	 0.0	 0.0	 0.0	 15.0; % NG
	3106	 80.755	 0.0	 68.0	 -68.0	 1.0	 65.88	 1	 135	 26.51	 0.0	 0.0	 0.0	 0.0	 0.0	 0.0	 0.0	 0.0	 0.0	 0.0	 54.9; % COW
	3110	 186.25	 0.0	 171.0	 -171.0	 1.0	 100.8	 1	 341	 31.5	 0.0	 0.0	 0.0	 0.0	 0.0	 0.0	 0.0	 0.0	 0.0	 0.0	 84.0; % COW
	3112	 75.025	 0.0	 61.0	 -61.0	 1.0	 89.76	 1	 122	 28.05	 0.0	 0.0	 0.0	 0.0	 0.0	 0.0	 0.0	 0.0	 0.0	 0.0	 74.8; % PEL
	3113	 57.025	 0.0	 43.0	 -43.0	 1.0	 89.76	 1	 86	 28.05	 0.0	 0.0	 0.0	 0.0	 0.0	 0.0	 0.0	 0.0	 0.0	 0.0	 74.8; % NG
	3117	 55.3125	 0.0	 44.0	 -44.0	 1.0	 75.6	 1	 87	 23.625	 0.0	 0.0	 0.0	 0.0	 0.0	 0.0	 0.0	 0.0	 0.0	 0.0	 63.0; % NG
	3118	 92.0	 0.0	 70.0	 -70.0	 1.0	 144.0	 1	 139	 45.0	 0.0	 0.0	 0.0	 0.0	 0.0	 0.0	 0.0	 0.0	 0.0	 0.0	 120.0; % NG
	3120	 34.425	 0.0	 27.0	 -27.0	 1.0	 47.52	 1	 54	 14.85	 0.0	 0.0	 0.0	 0.0	 0.0	 0.0	 0.0	 0.0	 0.0	 0.0	 39.6; % NG
	3122	 127.4375	 0.0	 91.0	 -91.0	 1.0	 236.4	 1	 181	 73.875	 0.0	 0.0	 0.0	 0.0	 0.0	 0.0	 0.0	 0.0	 0.0	 0.0	 197.0; % NG
	3127	 90.8125	 0.0	 66.0	 -66.0	 1.0	 162.0	 1	 131	 50.625	 0.0	 0.0	 0.0	 0.0	 0.0	 0.0	 0.0	 0.0	 0.0	 0.0	 135.0; % NG
	3129	 143.72	 0.0	 120.0	 -120.0	 1.0	 151.8	 1	 240	 47.44	 0.0	 0.0	 0.0	 0.0	 0.0	 0.0	 0.0	 0.0	 0.0	 0.0	 126.5; % NG
	3131	 265.375	 0.0	 244.0	 -244.0	 1.0	 136.8	 1	 488	 42.75	 0.0	 0.0	 0.0	 0.0	 0.0	 0.0	 0.0	 0.0	 0.0	 0.0	 114.0; % NG
	3133	 0.0	 0.0	 26.11	 -22.0	 1.0	 61.56	 0	 44	 7.695	 0.0	 0.0	 0.0	 0.0	 0.0	 0.0	 0.0	 0.0	 0.0	 0.0	 51.3; % NG
	3133	 0.0	 0.0	 26.11	 -22.0	 1.0	 61.56	 0	 43	 7.695	 0.0	 0.0	 0.0	 0.0	 0.0	 0.0	 0.0	 0.0	 0.0	 0.0	 51.3; % NG
	3133	 0.0	 0.0	 56.0	 -56.0	 1.0	 61.56	 0	 112	 7.695	 0.0	 0.0	 0.0	 0.0	 0.0	 0.0	 0.0	 0.0	 0.0	 0.0	 51.3; % NG
	3137	 79.475	 0.0	 61.0	 -61.0	 1.0	 121.44	 1	 121	 37.95	 0.0	 0.0	 0.0	 0.0	 0.0	 0.0	 0.0	 0.0	 0.0	 0.0	 101.2; % PEL
	3141	 88.655	 0.0	 72.0	 -72.0	 1.0	 109.8	 1	 143	 34.31	 0.0	 0.0	 0.0	 0.0	 0.0	 0.0	 0.0	 0.0	 0.0	 0.0	 91.5; % PEL
	4010	 195.3	 0.0	 158.0	 -158.0	 1.0	 241.92	 1	 315	 75.6	 0.0	 0.0	 0.0	 0.0	 0.0	 0.0	 0.0	 0.0	 0.0	 0.0	 201.6; % NG
	4026	 200.75	 10.53	 191.06	 -170.0	 1.0	 492.0	 1	 340	 61.5	 0.0	 0.0	 0.0	 0.0	 0.0	 0.0	 0.0	 0.0	 0.0	 0.0	 410.0; % NG
	4030	 480.68	 0.0	 434.0	 -434.0	 1.0	 746.88	 1	 868	 93.36	 0.0	 0.0	 0.0	 0.0	 0.0	 0.0	 0.0	 0.0	 0.0	 0.0	 622.4; % COW
	4045	 74.35	 0.0	 51.0	 -51.0	 1.0	 37.8	 1	 102	 46.7	 0.0	 0.0	 0.0	 0.0	 0.0	 0.0	 0.0	 0.0	 0.0	 0.0	 31.5; % NG
	4046	 30.125	 0.0	 23.0	 -23.0	 1.0	 11.52	 1	 46	 14.25	 0.0	 0.0	 0.0	 0.0	 0.0	 0.0	 0.0	 0.0	 0.0	 0.0	 9.6; % NG
	4047	 50.87	 15.55	 75.1	 -44.0	 1.0	 79.2	 1	 88	 13.74	 0.0	 0.0	 0.0	 0.0	 0.0	 0.0	 0.0	 0.0	 0.0	 0.0	 66.0; % COW
	4050	 201.5	 0.0	 164.0	 -164.0	 1.0	 240.0	 1	 328	 75.0	 0.0	 0.0	 0.0	 0.0	 0.0	 0.0	 0.0	 0.0	 0.0	 0.0	 200.0; % NG
	4052	 68.815	 0.0	 66.0	 -66.0	 1.0	 53.04	 1	 131	 6.63	 0.0	 0.0	 0.0	 0.0	 0.0	 0.0	 0.0	 0.0	 0.0	 0.0	 44.2; % NG
	4058	 201.3	 0.0	 191.0	 -191.0	 1.0	 172.8	 1	 381	 21.6	 0.0	 0.0	 0.0	 0.0	 0.0	 0.0	 0.0	 0.0	 0.0	 0.0	 144.0; % NG
	4059	 90.8	 0.0	 80.0	 -80.0	 1.0	 172.8	 1	 160	 21.6	 0.0	 0.0	 0.0	 0.0	 0.0	 0.0	 0.0	 0.0	 0.0	 0.0	 144.0; % COW
	4060	 214.8	 0.0	 204.0	 -204.0	 1.0	 172.8	 1	 408	 21.6	 0.0	 0.0	 0.0	 0.0	 0.0	 0.0	 0.0	 0.0	 0.0	 0.0	 144.0; % COW
	4061	 121.925	 0.0	 109.0	 -109.0	 1.0	 206.8	 1	 218	 25.85	 0.0	 0.0	 0.0	 0.0	 0.0	 0.0	 0.0	 0.0	 0.0	 0.0	 172.33; % NG
	4062	 91.925	 4.36	 87.72	 -79.0	 1.0	 206.8	 1	 158	 25.85	 0.0	 0.0	 0.0	 0.0	 0.0	 0.0	 0.0	 0.0	 0.0	 0.0	 172.33; % NG
	4063	 84.425	 7.86	 87.72	 -72.0	 1.0	 206.8	 1	 143	 25.85	 0.0	 0.0	 0.0	 0.0	 0.0	 0.0	 0.0	 0.0	 0.0	 0.0	 172.33; % NG
	4065	 170.525	 0.0	 167.0	 -167.0	 1.0	 56.4	 1	 334	 7.05	 0.0	 0.0	 0.0	 0.0	 0.0	 0.0	 0.0	 0.0	 0.0	 0.0	 47.0; % NG
	4075	 0.0	 0.0	 615.0	 -615.0	 1.0	 211.6	 0	 1229	 26.45	 0.0	 0.0	 0.0	 0.0	 0.0	 0.0	 0.0	 0.0	 0.0	 0.0	 176.33; % COW
	4076	 168.225	 0.0	 155.0	 -155.0	 1.0	 211.6	 1	 310	 26.45	 0.0	 0.0	 0.0	 0.0	 0.0	 0.0	 0.0	 0.0	 0.0	 0.0	 176.33; % NG
	4077	 228.225	 0.0	 215.0	 -215.0	 1.0	 211.6	 1	 430	 26.45	 0.0	 0.0	 0.0	 0.0	 0.0	 0.0	 0.0	 0.0	 0.0	 0.0	 176.33; % NG
	4082	 124.755	 8.445	 123.89	 -107.0	 1.0	 292.08	 1	 213	 36.51	 0.0	 0.0	 0.0	 0.0	 0.0	 0.0	 0.0	 0.0	 0.0	 0.0	 243.4; % COW
	4083	 183.255	 0.0	 165.0	 -165.0	 1.0	 292.08	 1	 330	 36.51	 0.0	 0.0	 0.0	 0.0	 0.0	 0.0	 0.0	 0.0	 0.0	 0.0	 243.4; % NG
	4084	 172.255	 0.0	 154.0	 -154.0	 1.0	 292.08	 1	 308	 36.51	 0.0	 0.0	 0.0	 0.0	 0.0	 0.0	 0.0	 0.0	 0.0	 0.0	 243.4; % NG
	4085	 181.9	 11.585	 179.17	 -156.0	 1.0	 422.4	 1	 311	 52.8	 0.0	 0.0	 0.0	 0.0	 0.0	 0.0	 0.0	 0.0	 0.0	 0.0	 352.0; % COW
	4090	 0.0	 0.0	 13.0	 -13.0	 1.0	 1.68	 0	 26	 0.21	 0.0	 0.0	 0.0	 0.0	 0.0	 0.0	 0.0	 0.0	 0.0	 0.0	 1.4; % PEL
	4091	 21.2625	 0.0	 20.0	 -20.0	 1.0	 28.2	 1	 39	 3.525	 0.0	 0.0	 0.0	 0.0	 0.0	 0.0	 0.0	 0.0	 0.0	 0.0	 23.5; % COW
	4092	 0.0	 0.0	 45.0	 -45.0	 1.0	 9.12	 0	 89	 1.14	 0.0	 0.0	 0.0	 0.0	 0.0	 0.0	 0.0	 0.0	 0.0	 0.0	 7.6; % PEL
	4093	 57.6	 0.0	 56.0	 -56.0	 1.0	 33.6	 1	 111	 4.2	 0.0	 0.0	 0.0	 0.0	 0.0	 0.0	 0.0	 0.0	 0.0	 0.0	 28.0; % NG
	4094	 28.1	 0.0	 26.0	 -26.0	 1.0	 33.6	 1	 52	 4.2	 0.0	 0.0	 0.0	 0.0	 0.0	 0.0	 0.0	 0.0	 0.0	 0.0	 28.0; % NG
	4095	 47.1	 0.0	 45.0	 -45.0	 1.0	 33.6	 1	 90	 4.2	 0.0	 0.0	 0.0	 0.0	 0.0	 0.0	 0.0	 0.0	 0.0	 0.0	 28.0; % PEL
	4096	 0.0	 0.0	 13.05	 -12.0	 1.0	 33.6	 0	 24	 4.2	 0.0	 0.0	 0.0	 0.0	 0.0	 0.0	 0.0	 0.0	 0.0	 0.0	 28.0; % NG
	4097	 21.1	 0.0	 19.0	 -19.0	 1.0	 33.6	 1	 38	 4.2	 0.0	 0.0	 0.0	 0.0	 0.0	 0.0	 0.0	 0.0	 0.0	 0.0	 28.0; % PEL
	4098	 0.0	 0.0	 300.0	 -300.0	 1.0	 33.6	 0	 600	 4.2	 0.0	 0.0	 0.0	 0.0	 0.0	 0.0	 0.0	 0.0	 0.0	 0.0	 28.0; % COW
	4105	 180.25	 0.0	 147.0	 -147.0	 1.0	 216.0	 1	 293	 67.5	 0.0	 0.0	 0.0	 0.0	 0.0	 0.0	 0.0	 0.0	 0.0	 0.0	 180.0; % NG
	4115	 119.885	 0.0	 110.0	 -110.0	 1.0	 158.16	 1	 220	 19.77	 0.0	 0.0	 0.0	 0.0	 0.0	 0.0	 0.0	 0.0	 0.0	 0.0	 131.8; % NG
	4116	 82.385	 0.0	 73.0	 -73.0	 1.0	 158.16	 1	 145	 19.77	 0.0	 0.0	 0.0	 0.0	 0.0	 0.0	 0.0	 0.0	 0.0	 0.0	 131.8; % NG
	4133	 0.0	 0.0	 23.0	 -23.0	 1.0	 40.32	 0	 46	 5.04	 0.0	 0.0	 0.0	 0.0	 0.0	 0.0	 0.0	 0.0	 0.0	 0.0	 33.6; % NG
	4134	 34.52	 0.0	 32.0	 -32.0	 1.0	 40.32	 1	 64	 5.04	 0.0	 0.0	 0.0	 0.0	 0.0	 0.0	 0.0	 0.0	 0.0	 0.0	 33.6; % PEL
	4135	 12.02	 0.0	 22.8	 -22.8	 1.0	 40.32	 1	 19	 5.04	 0.0	 0.0	 0.0	 0.0	 0.0	 0.0	 0.0	 0.0	 0.0	 0.0	 33.6; % NG
	4136	 39.52	 0.0	 37.0	 -37.0	 1.0	 40.32	 1	 74	 5.04	 0.0	 0.0	 0.0	 0.0	 0.0	 0.0	 0.0	 0.0	 0.0	 0.0	 33.6; % COW
	4137	 0.0	 0.0	 34.2	 -7.46	 1.0	 80.64	 0	 3	 20.16	 0.0	 0.0	 0.0	 0.0	 0.0	 0.0	 0.0	 0.0	 0.0	 0.0	 67.2; % NG
	4138	 0.0	 0.0	 214.0	 -214.0	 1.0	 79.2	 0	 428	 9.9	 0.0	 0.0	 0.0	 0.0	 0.0	 0.0	 0.0	 0.0	 0.0	 0.0	 66.0; % NG
	4142	 150.25	 0.0	 115.0	 -115.0	 1.0	 225.6	 1	 230	 70.5	 0.0	 0.0	 0.0	 0.0	 0.0	 0.0	 0.0	 0.0	 0.0	 0.0	 188.0; % NG
	4153	 288.6	 0.0	 236.0	 -236.0	 1.0	 339.84	 1	 471	 106.2	 0.0	 0.0	 0.0	 0.0	 0.0	 0.0	 0.0	 0.0	 0.0	 0.0	 283.2; % NG
	4160	 230.3325	 0.0	 216.0	 -216.0	 1.0	 237.32	 1	 431	 29.665	 0.0	 0.0	 0.0	 0.0	 0.0	 0.0	 0.0	 0.0	 0.0	 0.0	 197.77; % COW
	4161	 122.3325	 0.0	 108.0	 -108.0	 1.0	 237.32	 1	 215	 29.665	 0.0	 0.0	 0.0	 0.0	 0.0	 0.0	 0.0	 0.0	 0.0	 0.0	 197.77; % NG
	4162	 126.3325	 0.0	 112.0	 -112.0	 1.0	 237.32	 1	 223	 29.665	 0.0	 0.0	 0.0	 0.0	 0.0	 0.0	 0.0	 0.0	 0.0	 0.0	 197.77; % NG
	4163	 0.0	 0.0	 114.0	 -114.0	 1.0	 10.8	 0	 228	 1.35	 0.0	 0.0	 0.0	 0.0	 0.0	 0.0	 0.0	 0.0	 0.0	 0.0	 9.0; % NG
	4166	 212.1875	 0.0	 175.0	 -175.0	 1.0	 241.2	 1	 349	 75.375	 0.0	 0.0	 0.0	 0.0	 0.0	 0.0	 0.0	 0.0	 0.0	 0.0	 201.0; % NG
	4177	 252.625	 0.0	 225.0	 -225.0	 1.0	 180.0	 1	 449	 56.25	 0.0	 0.0	 0.0	 0.0	 0.0	 0.0	 0.0	 0.0	 0.0	 0.0	 150.0; % NG
	4181	 393.5175	 0.0	 529.2	 -529.2	 1.0	 240.12	 1	 712	 75.035	 0.0	 0.0	 0.0	 0.0	 0.0	 0.0	 0.0	 0.0	 0.0	 0.0	 200.1; % NG
	4183	 401.0625	 0.0	 363.0	 -363.0	 1.0	 243.6	 1	 726	 76.125	 0.0	 0.0	 0.0	 0.0	 0.0	 0.0	 0.0	 0.0	 0.0	 0.0	 203.0; % NG
	4192	 121.625	 0.0	 116.0	 -116.0	 1.0	 90.0	 1	 232	 11.25	 0.0	 0.0	 0.0	 0.0	 0.0	 0.0	 0.0	 0.0	 0.0	 0.0	 75.0; % PEL
	4192	 191.2825	 0.0	 178.0	 -178.0	 1.0	 220.52	 1	 355	 27.565	 0.0	 0.0	 0.0	 0.0	 0.0	 0.0	 0.0	 0.0	 0.0	 0.0	 183.77; % NG
	4192	 0.0	 0.0	 63.0	 -63.0	 1.0	 28.8	 0	 125	 3.6	 0.0	 0.0	 0.0	 0.0	 0.0	 0.0	 0.0	 0.0	 0.0	 0.0	 24.0; % PEL
	4192	 110.575	 0.0	 106.0	 -106.0	 1.0	 73.2	 1	 212	 9.15	 0.0	 0.0	 0.0	 0.0	 0.0	 0.0	 0.0	 0.0	 0.0	 0.0	 61.0; % NG
	4192	 92.78	 0.0	 92.0	 -92.0	 1.0	 12.48	 1	 184	 1.56	 0.0	 0.0	 0.0	 0.0	 0.0	 0.0	 0.0	 0.0	 0.0	 0.0	 10.4; % PEL
	4192	 221.525	 0.0	 202.0	 -202.0	 1.0	 320.4	 1	 403	 40.05	 0.0	 0.0	 0.0	 0.0	 0.0	 0.0	 0.0	 0.0	 0.0	 0.0	 267.0; % NG
	4192	 127.525	 13.95	 135.9	 -108.0	 1.0	 320.4	 1	 215	 40.05	 0.0	 0.0	 0.0	 0.0	 0.0	 0.0	 0.0	 0.0	 0.0	 0.0	 267.0; % NG
	4192	 148.025	 3.95	 135.9	 -128.0	 1.0	 320.4	 1	 256	 40.05	 0.0	 0.0	 0.0	 0.0	 0.0	 0.0	 0.0	 0.0	 0.0	 0.0	 267.0; % NG
	4192	 230.7825	 0.0	 217.0	 -217.0	 1.0	 220.52	 1	 434	 27.565	 0.0	 0.0	 0.0	 0.0	 0.0	 0.0	 0.0	 0.0	 0.0	 0.0	 183.77; % NG
	4192	 352.7825	 0.0	 339.0	 -339.0	 1.0	 220.52	 1	 678	 27.565	 0.0	 0.0	 0.0	 0.0	 0.0	 0.0	 0.0	 0.0	 0.0	 0.0	 183.77; % NG
	4194	 215.3	 0.0	 178.0	 -178.0	 1.0	 241.92	 1	 355	 75.6	 0.0	 0.0	 0.0	 0.0	 0.0	 0.0	 0.0	 0.0	 0.0	 0.0	 201.6; % NG
	4195	 386.25	 0.0	 369.0	 -369.0	 1.0	 110.4	 1	 738	 34.5	 0.0	 0.0	 0.0	 0.0	 0.0	 0.0	 0.0	 0.0	 0.0	 0.0	 92.0; % PEL
	5020	 139.0	 0.0	 117.0	 -117.0	 1.0	 144.0	 1	 233	 45.0	 0.0	 0.0	 0.0	 0.0	 0.0	 0.0	 0.0	 0.0	 0.0	 0.0	 120.0; % PEL
	5023	 0.0	 0.0	 21.0	 -21.0	 1.0	 5.76	 0	 42	 0.72	 0.0	 0.0	 0.0	 0.0	 0.0	 0.0	 0.0	 0.0	 0.0	 0.0	 4.8; % NG
	5035	 0.0	 0.0	 230.0	 -230.0	 1.0	 5.04	 0	 460	 0.63	 0.0	 0.0	 0.0	 0.0	 0.0	 0.0	 0.0	 0.0	 0.0	 0.0	 4.2; % NG
	5036	 0.0	 0.0	 21.0	 -21.0	 1.0	 7.68	 0	 42	 0.96	 0.0	 0.0	 0.0	 0.0	 0.0	 0.0	 0.0	 0.0	 0.0	 0.0	 6.4; % PEL
	5037	 232.635	 0.0	 210.0	 -210.0	 1.0	 370.16	 1	 419	 46.27	 0.0	 0.0	 0.0	 0.0	 0.0	 0.0	 0.0	 0.0	 0.0	 0.0	 308.47; % COW
	5038	 157.635	 11.005	 157.01	 -135.0	 1.0	 370.16	 1	 269	 46.27	 0.0	 0.0	 0.0	 0.0	 0.0	 0.0	 0.0	 0.0	 0.0	 0.0	 308.47; % NG
	5039	 187.135	 0.0	 164.0	 -164.0	 1.0	 370.16	 1	 328	 46.27	 0.0	 0.0	 0.0	 0.0	 0.0	 0.0	 0.0	 0.0	 0.0	 0.0	 308.47; % NG
	5040	 350.135	 0.0	 327.0	 -327.0	 1.0	 370.16	 1	 654	 46.27	 0.0	 0.0	 0.0	 0.0	 0.0	 0.0	 0.0	 0.0	 0.0	 0.0	 308.47; % COW
	5041	 148.635	 15.505	 157.01	 -126.0	 1.0	 370.16	 1	 251	 46.27	 0.0	 0.0	 0.0	 0.0	 0.0	 0.0	 0.0	 0.0	 0.0	 0.0	 308.47; % NG
	5042	 140.135	 20.005	 157.01	 -117.0	 1.0	 370.16	 1	 234	 46.27	 0.0	 0.0	 0.0	 0.0	 0.0	 0.0	 0.0	 0.0	 0.0	 0.0	 308.47; % NG
	5051	 77.8525	 0.0	 156.0	 -156.0	 1.0	 101.64	 1	 143	 12.705	 0.0	 0.0	 0.0	 0.0	 0.0	 0.0	 0.0	 0.0	 0.0	 0.0	 84.7; % NG
	5057	 0.0	 0.0	 161.53	 -94.0	 1.0	 380.82	 0	 187	 47.6	 0.0	 0.0	 0.0	 0.0	 0.0	 0.0	 0.0	 0.0	 0.0	 0.0	 317.35; % COW
	5058	 144.3	 20.265	 161.53	 -121.0	 1.0	 380.82	 1	 241	 47.6	 0.0	 0.0	 0.0	 0.0	 0.0	 0.0	 0.0	 0.0	 0.0	 0.0	 317.35; % NG
	5065	 77.795	 0.0	 77.0	 -77.0	 1.0	 12.72	 1	 154	 1.59	 0.0	 0.0	 0.0	 0.0	 0.0	 0.0	 0.0	 0.0	 0.0	 0.0	 10.6; % COW
	5066	 0.0	 0.0	 49.0	 -49.0	 1.0	 2.16	 0	 97	 0.27	 0.0	 0.0	 0.0	 0.0	 0.0	 0.0	 0.0	 0.0	 0.0	 0.0	 1.8; % NG
	5067	 251.87	 2.04	 223.08	 -219.0	 1.0	 525.92	 1	 438	 65.74	 0.0	 0.0	 0.0	 0.0	 0.0	 0.0	 0.0	 0.0	 0.0	 0.0	 438.27; % NG
	5068	 215.87	 20.04	 223.08	 -183.0	 1.0	 525.92	 1	 366	 65.74	 0.0	 0.0	 0.0	 0.0	 0.0	 0.0	 0.0	 0.0	 0.0	 0.0	 438.27; % NG
	5069	 348.87	 0.0	 316.0	 -316.0	 1.0	 525.92	 1	 632	 65.74	 0.0	 0.0	 0.0	 0.0	 0.0	 0.0	 0.0	 0.0	 0.0	 0.0	 438.27; % NG
	5089	 0.0	 0.0	 54.0	 -54.0	 1.0	 50.16	 0	 108	 0.0	 0.0	 0.0	 0.0	 0.0	 0.0	 0.0	 0.0	 0.0	 0.0	 0.0	 41.8; % NG
...
];

%% generator cost data
%	2	startup	shutdown	n	c(n-1)	...	c0
mpc.gencost = [
	2	 0.0	 0.0	 3	   0.000000	   0.000000	   0.000000; % NG
	2	 0.0	 0.0	 3	   0.000000	   0.000000	   0.000000; % NG
	2	 0.0	 0.0	 3	   0.000000	   0.000000	   0.000000; % NG
	2	 0.0	 0.0	 3	   0.000000	   0.000000	   0.000000; % PEL
	2	 0.0	 0.0	 3	   0.000000	   0.000000	   0.000000; % NG
	2	 0.0	 0.0	 3	   0.000000	   0.000000	   0.000000; % NG
	2	 0.0	 0.0	 3	   0.000000	   0.000000	   0.000000; % NG
	2	 0.0	 0.0	 3	   0.000000	   0.000000	   0.000000; % NG
	2	 0.0	 0.0	 3	   0.000000	   0.000000	   0.000000; % NG
	2	 0.0	 0.0	 3	   0.000000	   0.000000	   0.000000; % NG
	2	 0.0	 0.0	 3	   0.000000	   0.000000	   0.000000; % NG
	2	 0.0	 0.0	 3	   0.000000	   0.000000	   0.000000; % NG
	2	 0.0	 0.0	 3	   0.001000	  18.641000	 1087.800000; % NG
	2	 0.0	 0.0	 3	   0.001000	  18.641000	 1087.800000; % COW
	2	 0.0	 0.0	 3	   0.001000	  17.464000	 734.100000; % NG
	2	 0.0	 0.0	 3	   0.001000	  17.464000	 734.100000; % NG
	2	 0.0	 0.0	 3	   0.001000	  17.464000	 734.100000; % NG
	2	 0.0	 0.0	 3	   0.001000	  17.910000	 868.200000; % NG
	2	 0.0	 0.0	 3	   0.000000	   0.000000	   0.000000; % NG
	2	 0.0	 0.0	 3	   0.001000	  17.046000	 608.400000; % PEL
	2	 0.0	 0.0	 3	   0.001000	  17.028000	 603.000000; % PEL
	2	 0.0	 0.0	 3	   0.000000	   0.000000	   0.000000; % PEL
	2	 0.0	 0.0	 3	   0.000000	   0.000000	   0.000000; % NG
	2	 0.0	 0.0	 3	   0.000000	   0.000000	   0.000000; % COW
	2	 0.0	 0.0	 3	   0.000000	   0.000000	   0.000000; % COW
	2	 0.0	 0.0	 3	   0.001000	  17.977000	 888.200000; % NG
	2	 0.0	 0.0	 3	   0.001000	  17.977000	 888.200000; % NG
	2	 0.0	 0.0	 3	   0.001000	  17.977000	 888.200000; % NG
	2	 0.0	 0.0	 3	   0.001000	  17.977000	 888.200000; % COW
	2	 0.0	 0.0	 3	   0.001000	  17.977000	 888.200000; % COW
	2	 0.0	 0.0	 3	   0.001000	  17.977000	 888.200000; % NG
	2	 0.0	 0.0	 3	   0.001000	  17.495000	 743.250000; % NG
	2	 0.0	 0.0	 3	   0.001000	  17.495000	 743.250000; % NG
	2	 0.0	 0.0	 3	   0.001000	  17.495000	 743.250000; % NG
	2	 0.0	 0.0	 3	   0.001000	  18.448000	 1029.750000; % NG
	2	 0.0	 0.0	 3	   0.000000	   0.000000	   0.000000; % NG
	2	 0.0	 0.0	 3	   0.000000	   0.000000	   0.000000; % NG
	2	 0.0	 0.0	 3	   0.000000	   0.000000	   0.000000; % NG
	2	 0.0	 0.0	 3	   0.000000	   0.000000	   0.000000; % NG
	2	 0.0	 0.0	 3	   0.000000	   0.000000	   0.000000; % PEL
	2	 0.0	 0.0	 3	   0.002000	  27.494000	 1187.700000; % COW
	2	 0.0	 0.0	 3	   0.002000	  27.494000	 1187.700000; % NG
	2	 0.0	 0.0	 3	   0.002000	  27.494000	 1187.700000; % NG
	2	 0.0	 0.0	 3	   0.000000	   0.000000	   0.000000; % COW
	2	 0.0	 0.0	 3	   0.000000	   0.000000	   0.000000; % NG
	2	 0.0	 0.0	 3	   0.001000	  16.989000	 724.990000; % NG
	2	 0.0	 0.0	 3	   0.001000	  17.394000	 850.010000; % NG
	2	 0.0	 0.0	 3	   0.000000	   0.000000	   0.000000; % PEL
	2	 0.0	 0.0	 3	   0.002000	  17.268000	 236.160000; % NG
	2	 0.0	 0.0	 3	   0.002000	  17.268000	 1398.510000; % COW
	2	 0.0	 0.0	 3	   0.000000	   0.000000	   0.000000; % NG
	2	 0.0	 0.0	 3	   0.000000	   0.000000	   0.000000; % NG
	2	 0.0	 0.0	 3	   0.000000	   0.000000	   0.000000; % NG
	2	 0.0	 0.0	 3	   0.000000	   0.000000	   0.000000; % NG
	2	 0.0	 0.0	 3	   0.000000	   0.000000	   0.000000; % NG
	2	 0.0	 0.0	 3	   0.001000	  16.033000	 630.000000; % PEL
	2	 0.0	 0.0	 3	   0.001000	  16.033000	 630.000000; % NG
	2	 0.0	 0.0	 3	   0.001000	  16.126000	 660.000000; % NG
	2	 0.0	 0.0	 3	   0.000000	   0.000000	   0.000000; % NG
	2	 0.0	 0.0	 3	   0.000000	   0.000000	   0.000000; % NG
	2	 0.0	 0.0	 3	   0.000000	   0.000000	   0.000000; % COW
	2	 0.0	 0.0	 3	   0.000000	   0.000000	   0.000000; % COW
	2	 0.0	 0.0	 3	   0.000000	   0.000000	   0.000000; % NG
	2	 0.0	 0.0	 3	   0.002000	  26.597000	 1001.590000; % NG
	2	 0.0	 0.0	 3	   0.002000	  26.597000	 1001.590000; % NG
	2	 0.0	 0.0	 3	   0.002000	  26.597000	 1001.590000; % NG
	2	 0.0	 0.0	 3	   0.001000	  17.482000	 877.080000; % NG
	2	 0.0	 0.0	 3	   0.001000	  17.482000	 877.080000; % NG
	2	 0.0	 0.0	 3	   0.001000	  17.482000	 877.080000; % NG
	2	 0.0	 0.0	 3	   0.001000	  17.482000	 877.080000; % NG
	2	 0.0	 0.0	 3	   0.001000	  17.482000	 877.080000; % NG
	2	 0.0	 0.0	 3	   0.001000	  17.482000	 877.080000; % NG
	2	 0.0	 0.0	 3	   0.000000	   0.000000	   0.000000; % NG
	2	 0.0	 0.0	 3	   0.000000	   0.000000	   0.000000; % COW
	2	 0.0	 0.0	 3	   0.000000	   0.000000	   0.000000; % PEL
	2	 0.0	 0.0	 3	   0.000000	   0.000000	   0.000000; % NG
	2	 0.0	 0.0	 3	   0.000000	   0.000000	   0.000000; % NG
	2	 0.0	 0.0	 3	   0.000000	   0.000000	   0.000000; % NG
	2	 0.0	 0.0	 3	   0.000000	   0.000000	   0.000000; % NG
	2	 0.0	 0.0	 3	   0.000000	   0.000000	   0.000000; % NG
	2	 0.0	 0.0	 3	   0.002000	  19.197000	 601.950000; % PEL
	2	 0.0	 0.0	 3	   0.002000	  19.693000	 734.100000; % NG
	2	 0.0	 0.0	 3	   0.002000	  21.704000	 1365.860000; % COW
	2	 0.0	 0.0	 3	   0.000000	   0.000000	   0.000000; % NG
	2	 0.0	 0.0	 3	   0.000000	   0.000000	   0.000000; % NG
	2	 0.0	 0.0	 3	   0.000000	   0.000000	   0.000000; % NG
	2	 0.0	 0.0	 3	   0.000000	   0.000000	   0.000000; % NG
	2	 0.0	 0.0	 3	   0.000000	   0.000000	   0.000000; % NG
	2	 0.0	 0.0	 3	   0.000000	   0.000000	   0.000000; % NG
	2	 0.0	 0.0	 3	   0.000000	   0.000000	   0.000000; % NG
	2	 0.0	 0.0	 3	   0.000000	   0.000000	   0.000000; % NG
	2	 0.0	 0.0	 3	   0.000000	   0.000000	   0.000000; % NG
	2	 0.0	 0.0	 3	   0.000000	   0.000000	   0.000000; % NG
	2	 0.0	 0.0	 3	   0.000000	   0.000000	   0.000000; % NG
	2	 0.0	 0.0	 3	   0.000000	   0.000000	   0.000000; % COW
	2	 0.0	 0.0	 3	   0.000000	   0.000000	   0.000000; % NG
	2	 0.0	 0.0	 3	   0.000000	   0.000000	   0.000000; % NG
	2	 0.0	 0.0	 3	   0.000000	   0.000000	   0.000000; % NG
	2	 0.0	 0.0	 3	   0.000000	   0.000000	   0.000000; % PEL
	2	 0.0	 0.0	 3	   0.000000	   0.000000	   0.000000; % COW
	2	 0.0	 0.0	 3	   0.000000	   0.000000	   0.000000; % NG
	2	 0.0	 0.0	 3	   0.000000	   0.000000	   0.000000; % NG
	2	 0.0	 0.0	 3	   0.000000	   0.000000	   0.000000; % NG
	2	 0.0	 0.0	 3	   0.000000	   0.000000	   0.000000; % COW
	2	 0.0	 0.0	 3	   0.000000	   0.000000	   0.000000; % COW
	2	 0.0	 0.0	 3	   0.000000	   0.000000	   0.000000; % PEL
	2	 0.0	 0.0	 3	   0.000000	   0.000000	   0.000000; % NG
	2	 0.0	 0.0	 3	   0.000000	   0.000000	   0.000000; % NG
	2	 0.0	 0.0	 3	   0.000000	   0.000000	   0.000000; % NG
	2	 0.0	 0.0	 3	   0.000000	   0.000000	   0.000000; % NG
	2	 0.0	 0.0	 3	   0.000000	   0.000000	   0.000000; % NG
	2	 0.0	 0.0	 3	   0.000000	   0.000000	   0.000000; % NG
	2	 0.0	 0.0	 3	   0.000000	   0.000000	   0.000000; % NG
	2	 0.0	 0.0	 3	   0.000000	   0.000000	   0.000000; % NG
	2	 0.0	 0.0	 3	   0.002000	  19.478000	 676.950000; % NG
	2	 0.0	 0.0	 3	   0.002000	  19.478000	 676.950000; % NG
	2	 0.0	 0.0	 3	   0.002000	  19.478000	 676.950000; % NG
	2	 0.0	 0.0	 3	   0.000000	   0.000000	   0.000000; % PEL
	2	 0.0	 0.0	 3	   0.000000	   0.000000	   0.000000; % PEL
	2	 0.0	 0.0	 3	   0.000000	   0.000000	   0.000000; % NG
	2	 0.0	 0.0	 3	   0.002000	  17.172000	 1243.080000; % NG
	2	 0.0	 0.0	 3	   0.002000	  17.172000	 1349.570000; % COW
	2	 0.0	 0.0	 3	   0.000000	   0.000000	   0.000000; % NG
	2	 0.0	 0.0	 3	   0.000000	   0.000000	   0.000000; % NG
	2	 0.0	 0.0	 3	   0.000000	   0.000000	   0.000000; % COW
	2	 0.0	 0.0	 3	   0.000000	   0.000000	   0.000000; % NG
	2	 0.0	 0.0	 3	   0.001000	  16.730000	 666.300000; % NG
	2	 0.0	 0.0	 3	   0.001000	  17.213000	 816.000000; % NG
	2	 0.0	 0.0	 3	   0.001000	  17.213000	 816.000000; % COW
	2	 0.0	 0.0	 3	   0.001000	  17.213000	 816.000000; % COW
	2	 0.0	 0.0	 3	   0.001000	  17.350000	 858.490000; % NG
	2	 0.0	 0.0	 3	   0.001000	  17.350000	 858.490000; % NG
	2	 0.0	 0.0	 3	   0.001000	  17.350000	 858.490000; % NG
	2	 0.0	 0.0	 3	   0.001000	  16.743000	 670.500000; % NG
	2	 0.0	 0.0	 3	   0.002000	  29.085000	 864.490000; % COW
	2	 0.0	 0.0	 3	   0.002000	  29.085000	 864.490000; % NG
	2	 0.0	 0.0	 3	   0.002000	  29.085000	 864.490000; % NG
	2	 0.0	 0.0	 3	   0.001000	  17.694000	 965.100000; % COW
	2	 0.0	 0.0	 3	   0.001000	  17.694000	 965.100000; % NG
	2	 0.0	 0.0	 3	   0.001000	  17.694000	 965.100000; % NG
	2	 0.0	 0.0	 3	   0.001000	  18.220000	 1128.000000; % COW
	2	 0.0	 0.0	 3	   0.002000	  17.172000	 236.040000; % PEL
	2	 0.0	 0.0	 3	   0.002000	  17.172000	 236.630000; % COW
	2	 0.0	 0.0	 3	   0.002000	  17.172000	 236.200000; % PEL
	2	 0.0	 0.0	 3	   0.002000	  17.172000	 236.750000; % NG
	2	 0.0	 0.0	 3	   0.002000	  17.172000	 236.750000; % NG
	2	 0.0	 0.0	 3	   0.002000	  17.172000	 236.750000; % PEL
	2	 0.0	 0.0	 3	   0.002000	  17.172000	 236.750000; % NG
	2	 0.0	 0.0	 3	   0.002000	  17.172000	 236.750000; % PEL
	2	 0.0	 0.0	 3	   0.002000	  17.172000	 236.750000; % COW
	2	 0.0	 0.0	 3	   0.000000	   0.000000	   0.000000; % NG
	2	 0.0	 0.0	 3	   0.002000	  28.724000	 797.700000; % NG
	2	 0.0	 0.0	 3	   0.002000	  28.724000	 797.700000; % NG
	2	 0.0	 0.0	 3	   0.002000	  27.928000	 650.400000; % NG
	2	 0.0	 0.0	 3	   0.002000	  27.928000	 650.400000; % PEL
	2	 0.0	 0.0	 3	   0.002000	  27.928000	 650.400000; % NG
	2	 0.0	 0.0	 3	   0.002000	  27.928000	 650.400000; % COW
	2	 0.0	 0.0	 3	   0.002000	  28.200000	 700.800000; % NG
	2	 0.0	 0.0	 3	   0.002000	  28.190000	 699.000000; % NG
	2	 0.0	 0.0	 3	   0.000000	   0.000000	   0.000000; % NG
	2	 0.0	 0.0	 3	   0.000000	   0.000000	   0.000000; % NG
	2	 0.0	 0.0	 3	   0.001000	  17.473000	 896.660000; % COW
	2	 0.0	 0.0	 3	   0.001000	  17.473000	 896.660000; % NG
	2	 0.0	 0.0	 3	   0.001000	  17.473000	 896.660000; % NG
	2	 0.0	 0.0	 3	   0.001000	  16.559000	 613.500000; % NG
	2	 0.0	 0.0	 3	   0.000000	   0.000000	   0.000000; % NG
	2	 0.0	 0.0	 3	   0.000000	   0.000000	   0.000000; % NG
	2	 0.0	 0.0	 3	   0.000000	   0.000000	   0.000000; % NG
	2	 0.0	 0.0	 3	   0.000000	   0.000000	   0.000000; % NG
	2	 0.0	 0.0	 3	   0.001000	  16.879000	 712.500000; % PEL
	2	 0.0	 0.0	 3	   0.001000	  17.405000	 875.660000; % NG
	2	 0.0	 0.0	 3	   0.001000	  16.632000	 636.000000; % PEL
	2	 0.0	 0.0	 3	   0.001000	  16.811000	 691.500000; % NG
	2	 0.0	 0.0	 3	   0.001000	  16.566000	 615.600000; % PEL
	2	 0.0	 0.0	 3	   0.001000	  17.808000	 1000.500000; % NG
	2	 0.0	 0.0	 3	   0.001000	  17.808000	 1000.500000; % NG
	2	 0.0	 0.0	 3	   0.001000	  17.808000	 1000.500000; % NG
	2	 0.0	 0.0	 3	   0.001000	  17.405000	 875.660000; % NG
	2	 0.0	 0.0	 3	   0.001000	  17.405000	 875.660000; % NG
	2	 0.0	 0.0	 3	   0.000000	   0.000000	   0.000000; % NG
	2	 0.0	 0.0	 3	   0.000000	   0.000000	   0.000000; % PEL
	2	 0.0	 0.0	 3	   0.000000	   0.000000	   0.000000; % PEL
	2	 0.0	 0.0	 3	   0.001000	  15.962000	 607.200000; % NG
	2	 0.0	 0.0	 3	   0.001000	  15.177000	 606.300000; % NG
	2	 0.0	 0.0	 3	   0.001000	  15.186000	 609.600000; % PEL
	2	 0.0	 0.0	 3	   0.001000	  16.529000	 1062.700000; % COW
	2	 0.0	 0.0	 3	   0.001000	  16.529000	 1062.700000; % NG
	2	 0.0	 0.0	 3	   0.001000	  16.529000	 1062.700000; % NG
	2	 0.0	 0.0	 3	   0.001000	  16.529000	 1062.700000; % COW
	2	 0.0	 0.0	 3	   0.001000	  16.529000	 1062.700000; % NG
	2	 0.0	 0.0	 3	   0.001000	  16.529000	 1062.700000; % NG
	2	 0.0	 0.0	 3	   0.001000	  16.996000	 727.050000; % NG
	2	 0.0	 0.0	 3	   0.001000	  17.435000	 1076.030000; % COW
	2	 0.0	 0.0	 3	   0.001000	  17.422000	 1076.030000; % NG
	2	 0.0	 0.0	 3	   0.001000	  15.989000	 615.900000; % COW
	2	 0.0	 0.0	 3	   0.001000	  15.948000	 602.700000; % NG
	2	 0.0	 0.0	 3	   0.001000	  17.987000	 1223.610000; % NG
	2	 0.0	 0.0	 3	   0.001000	  17.987000	 1223.610000; % NG
	2	 0.0	 0.0	 3	   0.001000	  17.987000	 1223.610000; % NG
	2	 0.0	 0.0	 3	   0.000000	   0.000000	   0.000000; % NG
...
];

%% branch data
%	fbus	tbus	r	x	b	rateA	rateB	rateC	ratio	angle	status	angmin	angmax
mpc.branch = [
	1001	 1064	 0.00524	 0.0358	 0.00609	 221.0	 221.0	 221.0	 0.0	 0.0	 1	 -30.0	 30.0;
	1001	 1064	 0.00524	 0.0358	 0.00609	 221.0	 221.0	 221.0	 0.0	 0.0	 1	 -30.0	 30.0;
	1001	 1071	 0.00435	 0.02808	 0.00536	 221.0	 221.0	 221.0	 0.0	 0.0	 1	 -30.0	 30.0;
	1001	 1071	 0.00435	 0.02808	 0.00536	 221.0	 221.0	 221.0	 0.0	 0.0	 1	 -30.0	 30.0;
	1002	 1007	 0.07776	 0.46693	 0.06336	 98.0	 98.0	 98.0	 0.0	 0.0	 1	 -30.0	 30.0;
	1010	 1002	 0.05552	 0.1357	 0.01777	 98.0	 98.0	 98.0	 0.0	 0.0	 1	 -30.0	 30.0;
	1004	 1003	 0.0045	 0.11582	 0.0	 250.0	 250.0	 250.0	 1.0	 0.0	 1	 -30.0	 30.0;
	1022	 1003	 0.00485	 0.02012	 0.00341	 221.0	 221.0	 221.0	 0.0	 0.0	 1	 -30.0	 30.0;
	1055	 1003	 0.01574	 0.03782	 0.00513	 98.0	 98.0	 98.0	 0.0	 0.0	 1	 -30.0	 30.0;
	1004	 3133	 0.0042	 0.03	 0.055	 523.0	 523.0	 523.0	 0.0	 0.0	 1	 -30.0	 30.0;
	1006	 1005	 0.00602	 0.14707	 0.0	 42.0	 42.0	 42.0	 1.0	 0.0	 1	 -30.0	 30.0;
	1025	 1005	 0.01842	 0.0821	 0.01204	 149.0	 149.0	 149.0	 0.0	 0.0	 1	 -30.0	 30.0;
	1005	 1061	 0.00599	 0.02484	 0.00422	 221.0	 221.0	 221.0	 0.0	 0.0	 1	 -30.0	 30.0;
	1067	 1005	 0.01711	 0.04181	 0.00548	 98.0	 98.0	 98.0	 0.0	 0.0	 1	 -30.0	 30.0;
	1007	 1015	 0.06224	 0.37375	 0.05072	 98.0	 98.0	 98.0	 0.0	 0.0	 1	 -30.0	 30.0;
	1031	 1007	 0.04803	 0.27434	 0.04123	 98.0	 98.0	 98.0	 0.0	 0.0	 1	 -30.0	 30.0;
	1009	 1008	 0.00455	 0.09471	 0.0	 120.0	 120.0	 120.0	 1.0	 0.0	 1	 -30.0	 30.0;
	1008	 1032	 0.04501	 0.11002	 0.01441	 98.0	 98.0	 98.0	 0.0	 0.0	 1	 -30.0	 30.0;
	1008	 1069	 0.0083	 0.03628	 0.00553	 149.0	 149.0	 149.0	 0.0	 0.0	 1	 -30.0	 30.0;
	1011	 1010	 0.00721	 0.3246	 0.0	 46.0	 46.0	 46.0	 1.0	 0.0	 1	 -30.0	 30.0;
	1010	 1015	 0.04703	 0.28243	 0.03833	 98.0	 98.0	 98.0	 0.0	 0.0	 1	 -30.0	 30.0;
	1010	 1030	 0.0616	 0.3699	 0.0502	 98.0	 98.0	 98.0	 0.0	 0.0	 1	 -30.0	 30.0;
	1012	 1087	 0.04934	 0.20469	 0.03473	 149.0	 149.0	 149.0	 0.0	 0.0	 1	 -30.0	 30.0;
	3051	 1012	 0.0571	 0.24977	 0.03804	 149.0	 149.0	 149.0	 0.0	 0.0	 1	 -30.0	 30.0;
	1013	 1031	 0.04509	 0.27078	 0.03675	 98.0	 98.0	 98.0	 0.0	 0.0	 1	 -30.0	 30.0;
	1047	 1013	 0.00947	 0.06117	 0.01167	 221.0	 221.0	 221.0	 0.0	 0.0	 1	 -30.0	 30.0;
	1086	 1013	 0.079	 0.19311	 0.02529	 98.0	 98.0	 98.0	 0.0	 0.0	 1	 -30.0	 30.0;
	1014	 1047	 0.03566	 0.14794	 0.0251	 149.0	 149.0	 149.0	 0.0	 0.0	 1	 -30.0	 30.0;
	1014	 1083	 0.04105	 0.18293	 0.02682	 149.0	 149.0	 149.0	 0.0	 0.0	 1	 -30.0	 30.0;
	1016	 1034	 0.01828	 0.10976	 0.01489	 98.0	 98.0	 98.0	 0.0	 0.0	 1	 -30.0	 30.0;
	1068	 1016	 0.02773	 0.15837	 0.0238	 98.0	 98.0	 98.0	 0.0	 0.0	 1	 -30.0	 30.0;
	1018	 1017	 0.03227	 0.07887	 0.01033	 98.0	 98.0	 98.0	 0.0	 0.0	 1	 -30.0	 30.0;
	1017	 1029	 0.03244	 0.14188	 0.02161	 149.0	 149.0	 149.0	 0.0	 0.0	 1	 -30.0	 30.0;
	1037	 1017	 0.00752	 0.03352	 0.00491	 221.0	 221.0	 221.0	 0.0	 0.0	 1	 -30.0	 30.0;
	1047	 1017	 0.036	 0.156	 0.024	 150.0	 150.0	 150.0	 0.0	 0.0	 1	 -30.0	 30.0;
	1024	 1018	 0.01094	 0.06572	 0.00892	 98.0	 98.0	 98.0	 0.0	 0.0	 1	 -30.0	 30.0;
	1019	 1040	 0.04978	 0.20651	 0.03504	 149.0	 149.0	 149.0	 0.0	 0.0	 1	 -30.0	 30.0;
	1019	 1045	 0.01522	 0.0372	 0.00487	 221.0	 221.0	 221.0	 0.0	 0.0	 1	 -30.0	 30.0;
	1019	 1071	 0.0044	 0.028	 0.0054	 225.0	 225.0	 225.0	 0.0	 0.0	 1	 -30.0	 30.0;
	1071	 1019	 0.0044	 0.028	 0.0054	 225.0	 225.0	 225.0	 0.0	 0.0	 1	 -30.0	 30.0;
	1019	 1084	 0.03	 0.16	 0.025	 220.0	 220.0	 220.0	 0.0	 0.0	 1	 -30.0	 30.0;
	1021	 1020	 0.00327	 0.07812	 0.0	 250.0	 250.0	 250.0	 1.0	 0.0	 1	 -30.0	 30.0;
	1025	 1020	 0.00828	 0.03434	 0.00583	 149.0	 149.0	 149.0	 0.0	 0.0	 1	 -30.0	 30.0;
	1084	 1020	 0.01056	 0.06337	 0.0086	 221.0	 221.0	 221.0	 0.0	 0.0	 1	 -30.0	 30.0;
	1020	 3059	 0.0189	 0.06	 0.006	 300.0	 300.0	 300.0	 0.0	 0.0	 1	 -30.0	 30.0;
	1020	 3130	 0.00996	 0.06938	 0.01134	 221.0	 221.0	 221.0	 0.0	 0.0	 1	 -30.0	 30.0;
	1023	 1022	 0.00535	 0.11733	 0.0	 250.0	 250.0	 250.0	 1.0	 0.0	 1	 -30.0	 30.0;
...